9548876
  PyMOL2.2          3D                             0

 83 83  0  0  1  0  0  0  0  0999 V2000
   -5.0402   -1.1019   -0.0958 H   0  0  0  0  0  0  0  0  0  0  0  0
   -3.1130    3.6777    0.8595 H   0  0  0  0  0  0  0  0  0  0  0  0
   -2.1801    3.4366   -0.6367 H   0  0  0  0  0  0  0  0  0  0  0  0
   -3.1260    3.2321   -0.1352 C   0  0  0  0  0  0  0  0  0  0  0  0
   -3.9439    3.6599   -0.7149 H   0  0  0  0  0  0  0  0  0  0  0  0
  -11.6557    2.4013    2.8837 N   0  0  0  0  0  0  0  0  0  0  0  0
  -10.9762    5.0448   -0.4894 C   0  0  0  0  0  0  0  0  0  0  0  0
  -10.9288    6.5018   -0.8631 C   0  0  0  0  0  0  0  0  0  0  0  0
  -11.7324    4.2519   -1.0408 O   0  0  0  0  0  0  0  0  0  0  0  0
  -12.5420    2.4355    4.0199 C   0  0  0  0  0  0  0  0  0  0  0  0
    1.2734    1.5354    3.0994 O   0  0  0  0  0  0  0  0  0  0  0  0
  -11.1364    4.6376    3.0184 O   0  0  0  0  0  0  0  0  0  0  0  0
  -10.1025    4.6934    0.5151 N   0  0  0  0  0  0  0  0  0  0  0  0
    2.2856   -4.2622   -4.6381 O   0  5  0  0  0  0  0  0  0  0  0  0
   -4.5000    1.0180   -0.1981 N   0  0  0  0  0  0  0  0  0  0  0  0
    1.6839   -5.7387   -3.0805 O   0  0  0  0  0  0  0  0  0  0  0  0
   -7.9895    2.4975    0.2882 C   0  0  0  0  0  0  0  0  0  0  0  0
   -8.8332    2.8265    1.5240 C   0  0  0  0  0  0  0  0  0  0  0  0
   -2.3487    0.7730    0.3018 C   0  0  0  0  0  0  0  0  0  0  0  0
   -6.6363    1.9041    0.6812 C   0  0  0  0  0  0  0  0  0  0  0  0
   -2.9484   -0.5266    0.2837 C   0  0  0  0  0  0  0  0  0  0  0  0
    2.1556   -0.2146    1.7265 C   0  0  0  0  0  0  0  0  0  0  0  0
  -10.2118    3.3836    1.1511 C   0  0  1  0  0  0  0  0  0  0  0  0
   -5.7954    1.5803   -0.5527 C   0  0  0  0  0  0  0  0  0  0  0  0
   -2.2879   -1.8420    0.5136 C   0  0  0  0  0  0  0  0  0  0  0  0
  -11.0590    3.5602    2.4283 C   0  0  0  0  0  0  0  0  0  0  0  0
    1.1993    0.9812    1.7888 C   0  0  1  0  0  0  0  0  0  0  0  0
    2.2406   -0.8488    0.3362 C   0  0  0  0  0  0  0  0  0  0  0  0
   -0.9842    1.1126    0.5559 C   0  0  0  0  0  0  0  0  0  0  0  0
    3.2583   -1.9910    0.3094 C   0  0  0  0  0  0  0  0  0  0  0  0
   -0.2298    0.6024    1.5430 C   0  0  0  0  0  0  0  0  0  0  0  0
   -3.3231    1.7096   -0.0139 C   0  0  0  0  0  0  0  0  0  0  0  0
    3.3256   -2.6383   -1.0731 C   0  0  0  0  0  0  0  0  0  0  0  0
   -4.2829   -0.3220   -0.0165 C   0  0  0  0  0  0  0  0  0  0  0  0
   -2.9399   -3.1113    0.0653 C   0  0  0  0  0  0  0  0  0  0  0  0
   -2.7366   -3.7645   -1.0912 C   0  0  0  0  0  0  0  0  0  0  0  0
   -1.8524   -3.3273   -2.2246 C   0  0  0  0  0  0  0  0  0  0  0  0
    4.3283   -3.7799   -1.1088 C   0  0  0  0  0  0  0  0  0  0  0  0
   -0.6431   -4.2499   -2.3723 C   0  0  0  0  0  0  0  0  0  0  0  0
    0.2391   -3.8186   -3.5421 C   0  0  0  0  0  0  0  0  0  0  0  0
    1.4383   -4.7140   -3.6923 C   0  0  0  0  0  0  0  0  0  0  0  0
  -11.4747    1.5467    2.4297 H   0  0  0  0  0  0  0  0  0  0  0  0
  -11.6330    6.6923   -1.6458 H   0  0  0  0  0  0  0  0  0  0  0  0
   -9.9445    6.7517   -1.2002 H   0  0  0  0  0  0  0  0  0  0  0  0
  -11.1752    7.0973   -0.0089 H   0  0  0  0  0  0  0  0  0  0  0  0
  -12.6196    3.4395    4.3816 H   0  0  0  0  0  0  0  0  0  0  0  0
  -12.1542    1.8066    4.7938 H   0  0  0  0  0  0  0  0  0  0  0  0
  -13.5101    2.0858    3.7277 H   0  0  0  0  0  0  0  0  0  0  0  0
    2.1891    1.7920    3.2906 H   0  0  0  0  0  0  0  0  0  0  0  0
   -9.4047    5.3248    0.8043 H   0  0  0  0  0  0  0  0  0  0  0  0
   -7.8272    3.3946   -0.2719 H   0  0  0  0  0  0  0  0  0  0  0  0
   -8.5174    1.7751   -0.2986 H   0  0  0  0  0  0  0  0  0  0  0  0
   -8.3145    3.5548    2.1117 H   0  0  0  0  0  0  0  0  0  0  0  0
   -8.9821    1.9194    2.0716 H   0  0  0  0  0  0  0  0  0  0  0  0
   -6.7981    1.0054    1.2389 H   0  0  0  0  0  0  0  0  0  0  0  0
   -6.1090    2.6245    1.2710 H   0  0  0  0  0  0  0  0  0  0  0  0
    1.8168   -0.9570    2.4185 H   0  0  0  0  0  0  0  0  0  0  0  0
    3.1325    0.1473    1.9704 H   0  0  0  0  0  0  0  0  0  0  0  0
  -10.6655    2.6917    0.4726 H   0  0  0  0  0  0  0  0  0  0  0  0
   -6.3254    0.8732   -1.1560 H   0  0  0  0  0  0  0  0  0  0  0  0
   -5.6250    2.4927   -1.0851 H   0  0  0  0  0  0  0  0  0  0  0  0
   -2.1411   -1.9301    1.5698 H   0  0  0  0  0  0  0  0  0  0  0  0
   -1.4201   -1.7859   -0.1098 H   0  0  0  0  0  0  0  0  0  0  0  0
    1.4957    1.6693    1.0249 H   0  0  0  0  0  0  0  0  0  0  0  0
    2.5360   -0.1017   -0.3706 H   0  0  0  0  0  0  0  0  0  0  0  0
    1.2791   -1.2462    0.0861 H   0  0  0  0  0  0  0  0  0  0  0  0
   -0.5431    1.8053   -0.0691 H   0  0  0  0  0  0  0  0  0  0  0  0
    2.9719   -2.7306    1.0276 H   0  0  0  0  0  0  0  0  0  0  0  0
    4.2227   -1.5913    0.5438 H   0  0  0  0  0  0  0  0  0  0  0  0
   -0.6609   -0.0937    2.1712 H   0  0  0  0  0  0  0  0  0  0  0  0
    3.6165   -1.8983   -1.7891 H   0  0  0  0  0  0  0  0  0  0  0  0
    2.3590   -3.0348   -1.3041 H   0  0  0  0  0  0  0  0  0  0  0  0
   -3.6213   -3.5319    0.7163 H   0  0  0  0  0  0  0  0  0  0  0  0
   -3.2390   -4.6576   -1.2134 H   0  0  0  0  0  0  0  0  0  0  0  0
   -1.5101   -2.3313   -2.0356 H   0  0  0  0  0  0  0  0  0  0  0  0
   -2.4201   -3.3665   -3.1307 H   0  0  0  0  0  0  0  0  0  0  0  0
    5.3040   -3.4049   -0.8801 H   0  0  0  0  0  0  0  0  0  0  0  0
    4.3346   -4.2187   -2.0847 H   0  0  0  0  0  0  0  0  0  0  0  0
    4.0523   -4.5198   -0.3868 H   0  0  0  0  0  0  0  0  0  0  0  0
   -0.9850   -5.2494   -2.5426 H   0  0  0  0  0  0  0  0  0  0  0  0
   -0.0646   -4.1978   -1.4736 H   0  0  0  0  0  0  0  0  0  0  0  0
    0.5734   -2.8162   -3.3735 H   0  0  0  0  0  0  0  0  0  0  0  0
   -0.3405   -3.8830   -4.4392 H   0  0  0  0  0  0  0  0  0  0  0  0
  2  4  1  0  0  0  0
  3  4  1  0  0  0  0
  4  5  1  0  0  0  0
  6 10  1  0  0  0  0
  6 26  1  0  0  0  0
  6 42  1  0  0  0  0
  7  8  1  0  0  0  0
  7  9  2  0  0  0  0
  7 13  1  0  0  0  0
  8 43  1  0  0  0  0
  8 44  1  0  0  0  0
  8 45  1  0  0  0  0
 10 46  1  0  0  0  0
 10 47  1  0  0  0  0
 10 48  1  0  0  0  0
 11 27  1  0  0  0  0
 11 49  1  0  0  0  0
 12 26  2  0  0  0  0
 13 23  1  0  0  0  0
 13 50  1  0  0  0  0
 14 41  1  0  0  0  0
 15 24  1  0  0  0  0
 15 32  1  0  0  0  0
 15 34  1  0  0  0  0
 16 41  2  0  0  0  0
 17 18  1  0  0  0  0
 17 20  1  0  0  0  0
 17 51  1  0  0  0  0
 17 52  1  0  0  0  0
 18 23  1  0  0  0  0
 18 53  1  0  0  0  0
 18 54  1  0  0  0  0
 19 21  1  0  0  0  0
 19 29  1  0  0  0  0
 19 32  2  0  0  0  0
 20 24  1  0  0  0  0
 20 55  1  0  0  0  0
 20 56  1  0  0  0  0
 21 25  1  0  0  0  0
 21 34  2  0  0  0  0
 22 27  1  0  0  0  0
 22 28  1  0  0  0  0
 22 57  1  0  0  0  0
 22 58  1  0  0  0  0
 23 26  1  0  0  0  0
 23 59  1  6  0  0  0
 24 60  1  0  0  0  0
 24 61  1  0  0  0  0
 25 35  1  0  0  0  0
 25 62  1  0  0  0  0
 25 63  1  0  0  0  0
 27 31  1  0  0  0  0
 27 64  1  6  0  0  0
 28 30  1  0  0  0  0
 28 65  1  0  0  0  0
 28 66  1  0  0  0  0
 29 31  2  0  0  0  0
 29 67  1  0  0  0  0
 30 33  1  0  0  0  0
 30 68  1  0  0  0  0
 30 69  1  0  0  0  0
 31 70  1  0  0  0  0
  4 32  1  0  0  0  0
 33 38  1  0  0  0  0
 33 71  1  0  0  0  0
 33 72  1  0  0  0  0
  1 34  1  0  0  0  0
 35 36  2  0  0  0  0
 35 73  1  0  0  0  0
 36 37  1  0  0  0  0
 36 74  1  0  0  0  0
 37 39  1  0  0  0  0
 37 75  1  0  0  0  0
 37 76  1  0  0  0  0
 38 77  1  0  0  0  0
 38 78  1  0  0  0  0
 38 79  1  0  0  0  0
 39 40  1  0  0  0  0
 39 80  1  0  0  0  0
 39 81  1  0  0  0  0
 40 41  1  0  0  0  0
 40 82  1  0  0  0  0
 40 83  1  0  0  0  0
M  END
$$$$
