9548876
  PyMOL2.2          3D                             0

 83 83  0  0  0  0  0  0  0  0999 V2000
   -5.0071   -1.0388   -0.1124 H   0  0  0  1  0  0  0  0  0  0  0  0
   -2.3268    3.4322   -0.7424 H   0  0  0  1  0  0  0  0  0  0  0  0
   -3.0449    3.6163    0.8397 H   0  0  0  1  0  0  0  0  0  0  0  0
   -3.1728    3.1904   -0.1335 C   0  0  0  1  0  0  0  0  0  0  0  0
   -4.0599    3.5859   -0.5826 H   0  0  0  1  0  0  0  0  0  0  0  0
  -10.0875    6.2853    2.6286 N   0  0  0  1  0  0  0  0  0  0  0  0
  -10.5617    6.1413   -0.3004 C   0  0  0  1  0  0  0  0  0  0  0  0
  -10.2257    7.1340   -1.3963 C   0  0  0  1  0  0  0  0  0  0  0  0
  -11.7018    6.0208    0.1169 O   0  0  0  1  0  0  0  0  0  0  0  0
  -10.6854    7.0348    3.7235 C   0  0  0  1  0  0  0  0  0  0  0  0
    1.7121    3.2050   -0.1584 O   0  0  0  1  0  0  0  0  0  0  0  0
  -11.0569    4.3181    3.1547 O   0  0  0  1  0  0  0  0  0  0  0  0
   -9.5317    5.4188    0.1678 N   0  0  0  1  0  0  0  0  0  0  0  0
    4.3568   -0.9668    4.0586 O   0  5  0  1  0  0  0  0  0  0  0  0
   -4.4723    1.0536   -0.2050 N   0  0  0  1  0  0  0  0  0  0  0  0
    2.4911    0.1745    4.6840 O   0  0  0  1  0  0  0  0  0  0  0  0
   -7.7280    3.0202    0.3247 C   0  0  0  1  0  0  0  0  0  0  0  0
   -8.3635    3.7218    1.5139 C   0  0  0  1  0  0  0  0  0  0  0  0
   -2.3239    0.7636    0.2852 C   0  0  0  1  0  0  0  0  0  0  0  0
   -6.3993    2.3596    0.6544 C   0  0  0  1  0  0  0  0  0  0  0  0
   -2.9481   -0.4923    0.2766 C   0  0  0  1  0  0  0  0  0  0  0  0
    1.2291    3.3268    2.1639 C   0  0  0  1  0  0  0  0  0  0  0  0
   -9.7020    4.3885    1.1814 C   0  0  0  1  0  0  0  0  0  0  0  0
   -5.7461    1.6893   -0.5433 C   0  0  0  1  0  0  0  0  0  0  0  0
   -2.2824   -1.8197    0.5527 C   0  0  0  1  0  0  0  0  0  0  0  0
  -10.3301    4.9855    2.4373 C   0  0  0  1  0  0  0  0  0  0  0  0
    1.0934    2.4899    0.8875 C   0  0  0  1  0  0  0  0  0  0  0  0
    2.6603    3.7426    2.4625 C   0  0  0  1  0  0  0  0  0  0  0  0
   -0.9145    1.0154    0.5608 C   0  0  0  1  0  0  0  0  0  0  0  0
    2.8192    4.4327    3.8075 C   0  0  0  1  0  0  0  0  0  0  0  0
   -0.3469    2.1943    0.6126 C   0  0  0  1  0  0  0  0  0  0  0  0
   -3.2939    1.7101   -0.0155 C   0  0  0  1  0  0  0  0  0  0  0  0
    4.2613    4.7783    4.1408 C   0  0  0  1  0  0  0  0  0  0  0  0
   -4.2811   -0.2988   -0.0296 C   0  0  0  1  0  0  0  0  0  0  0  0
   -2.4314   -2.3100    1.9580 C   0  0  0  1  0  0  0  0  0  0  0  0
   -1.4702   -2.6180    2.7923 C   0  0  0  1  0  0  0  0  0  0  0  0
    0.0090   -2.6137    2.5134 C   0  0  0  1  0  0  0  0  0  0  0  0
    4.4061    5.5967    5.4134 C   0  0  0  1  0  0  0  0  0  0  0  0
    0.7675   -1.5869    3.3385 C   0  0  0  1  0  0  0  0  0  0  0  0
    2.2728   -1.7971    3.3265 C   0  0  0  1  0  0  0  0  0  0  0  0
    3.0136   -0.7564    4.0934 C   0  0  0  1  0  0  0  0  0  0  0  0
   -9.4860    6.7503    2.0102 H   0  0  0  1  0  0  0  0  0  0  0  0
   -9.9426    8.0680   -0.9577 H   0  0  0  1  0  0  0  0  0  0  0  0
  -11.0823    7.2786   -2.0210 H   0  0  0  1  0  0  0  0  0  0  0  0
   -9.4151    6.7558   -1.9835 H   0  0  0  1  0  0  0  0  0  0  0  0
  -11.6158    7.4548    3.4027 H   0  0  0  1  0  0  0  0  0  0  0  0
  -10.0232    7.8209    4.0208 H   0  0  0  1  0  0  0  0  0  0  0  0
  -10.8569    6.3797    4.5520 H   0  0  0  1  0  0  0  0  0  0  0  0
    2.1760    2.5930   -0.7344 H   0  0  0  1  0  0  0  0  0  0  0  0
   -8.6339    5.5911   -0.1852 H   0  0  0  1  0  0  0  0  0  0  0  0
   -7.5654    3.7422   -0.4480 H   0  0  0  1  0  0  0  0  0  0  0  0
   -8.4032    2.2678   -0.0258 H   0  0  0  1  0  0  0  0  0  0  0  0
   -7.6880    4.4737    1.8649 H   0  0  0  1  0  0  0  0  0  0  0  0
   -8.5269    2.9996    2.2864 H   0  0  0  1  0  0  0  0  0  0  0  0
   -6.5665    1.6190    1.4083 H   0  0  0  1  0  0  0  0  0  0  0  0
   -5.7326    3.1075    1.0300 H   0  0  0  1  0  0  0  0  0  0  0  0
    0.8644    2.7501    2.9881 H   0  0  0  1  0  0  0  0  0  0  0  0
    0.6349    4.2100    2.0552 H   0  0  0  1  0  0  0  0  0  0  0  0
  -10.3626    3.6354    0.8053 H   0  0  0  1  0  0  0  0  0  0  0  0
   -6.4116    0.9427   -0.9235 H   0  0  0  1  0  0  0  0  0  0  0  0
   -5.5709    2.4286   -1.2967 H   0  0  0  1  0  0  0  0  0  0  0  0
   -1.2379   -1.7192    0.3433 H   0  0  0  1  0  0  0  0  0  0  0  0
   -2.7094   -2.5499   -0.1026 H   0  0  0  1  0  0  0  0  0  0  0  0
    1.6033    1.5620    1.0422 H   0  0  0  1  0  0  0  0  0  0  0  0
    2.9853    4.4146    1.6959 H   0  0  0  1  0  0  0  0  0  0  0  0
    3.2763    2.8677    2.4552 H   0  0  0  1  0  0  0  0  0  0  0  0
   -0.3081    0.1878    0.7309 H   0  0  0  1  0  0  0  0  0  0  0  0
    2.4414    3.7827    4.5689 H   0  0  0  1  0  0  0  0  0  0  0  0
    2.2478    5.3373    3.7942 H   0  0  0  1  0  0  0  0  0  0  0  0
   -0.9644    3.0140    0.4442 H   0  0  0  1  0  0  0  0  0  0  0  0
    4.6722    5.3398    3.3278 H   0  0  0  1  0  0  0  0  0  0  0  0
    4.8099    3.8673    4.2589 H   0  0  0  1  0  0  0  0  0  0  0  0
   -3.4038   -2.4181    2.3106 H   0  0  0  1  0  0  0  0  0  0  0  0
   -1.7604   -2.8957    3.7516 H   0  0  0  1  0  0  0  0  0  0  0  0
    0.1595   -2.3960    1.4767 H   0  0  0  1  0  0  0  0  0  0  0  0
    0.4002   -3.5847    2.7349 H   0  0  0  1  0  0  0  0  0  0  0  0
    5.4281    5.8892    5.5356 H   0  0  0  1  0  0  0  0  0  0  0  0
    4.1013    5.0073    6.2528 H   0  0  0  1  0  0  0  0  0  0  0  0
    3.7909    6.4697    5.3478 H   0  0  0  1  0  0  0  0  0  0  0  0
    0.4249   -1.6449    4.3506 H   0  0  0  1  0  0  0  0  0  0  0  0
    0.5576   -0.6140    2.9456 H   0  0  0  1  0  0  0  0  0  0  0  0
    2.6113   -1.7777    2.3116 H   0  0  0  1  0  0  0  0  0  0  0  0
    2.4866   -2.7534    3.7561 H   0  0  0  1  0  0  0  0  0  0  0  0
  1 34  1  0  0  0  0
  2  4  1  0  0  0  0
  3  4  1  0  0  0  0
  4  5  1  0  0  0  0
  4 32  1  0  0  0  0
  6 10  1  0  0  0  0
  6 26  1  0  0  0  0
  6 42  1  0  0  0  0
  7  8  1  0  0  0  0
  7  9  2  0  0  0  0
  7 13  1  0  0  0  0
  8 43  1  0  0  0  0
  8 44  1  0  0  0  0
  8 45  1  0  0  0  0
 10 46  1  0  0  0  0
 10 47  1  0  0  0  0
 10 48  1  0  0  0  0
 11 27  1  0  0  0  0
 11 49  1  0  0  0  0
 12 26  2  0  0  0  0
 13 23  1  0  0  0  0
 13 50  1  0  0  0  0
 14 41  1  0  0  0  0
 15 24  1  0  0  0  0
 15 32  4  0  0  0  0
 15 34  4  0  0  0  0
 16 41  2  0  0  0  0
 17 18  1  0  0  0  0
 17 20  1  0  0  0  0
 17 51  1  0  0  0  0
 17 52  1  0  0  0  0
 18 23  1  0  0  0  0
 18 53  1  0  0  0  0
 18 54  1  0  0  0  0
 19 21  4  0  0  0  0
 19 29  1  0  0  0  0
 19 32  4  0  0  0  0
 20 24  1  0  0  0  0
 20 55  1  0  0  0  0
 20 56  1  0  0  0  0
 21 25  1  0  0  0  0
 21 34  4  0  0  0  0
 22 27  1  0  0  0  0
 22 28  1  0  0  0  0
 22 57  1  0  0  0  0
 22 58  1  0  0  0  0
 23 26  1  0  0  0  0
 23 59  1  0  0  0  0
 24 60  1  0  0  0  0
 24 61  1  0  0  0  0
 25 35  1  0  0  0  0
 25 62  1  0  0  0  0
 25 63  1  0  0  0  0
 27 31  1  0  0  0  0
 27 64  1  0  0  0  0
 28 30  1  0  0  0  0
 28 65  1  0  0  0  0
 28 66  1  0  0  0  0
 29 31  2  0  0  0  0
 29 67  1  0  0  0  0
 30 33  1  0  0  0  0
 30 68  1  0  0  0  0
 30 69  1  0  0  0  0
 31 70  1  0  0  0  0
 33 38  1  0  0  0  0
 33 71  1  0  0  0  0
 33 72  1  0  0  0  0
 35 36  2  0  0  0  0
 35 73  1  0  0  0  0
 36 37  1  0  0  0  0
 36 74  1  0  0  0  0
 37 39  1  0  0  0  0
 37 75  1  0  0  0  0
 37 76  1  0  0  0  0
 38 77  1  0  0  0  0
 38 78  1  0  0  0  0
 38 79  1  0  0  0  0
 39 40  1  0  0  0  0
 39 80  1  0  0  0  0
 39 81  1  0  0  0  0
 40 41  1  0  0  0  0
 40 82  1  0  0  0  0
 40 83  1  0  0  0  0
> <RosettaParamsInstructions>
M  ROOT 13
M  POLY_N_BB 13
M  POLY_CA_BB 23
M  POLY_C_BB 26
M  POLY_O_BB 12
M  POLY_IGNORE 46 47 48 10 42 8 9 43 44 45
M  POLY_UPPER 6
M  POLY_LOWER 7
M  POLY_PROPERTIES PROTEIN L_AA ALPHA_AA AROMATIC
M  END
> <ConfClashScore>
0 

> <ConfOneFourInteractionScore>
-0.982895 

> <ConfScore>
-0.408483 

> <ConfScorePBest>
0.00783383 

> <ConfTolerance>
1.58469 

$$$$
9548876
  PyMOL2.2          3D                             0

 83 83  0  0  0  0  0  0  0  0999 V2000
   -4.9988   -1.0405   -0.1114 H   0  0  0  1  0  0  0  0  0  0  0  0
   -2.3805    3.5426    0.4844 H   0  0  0  1  0  0  0  0  0  0  0  0
   -4.0973    3.6509    0.1787 H   0  0  0  1  0  0  0  0  0  0  0  0
   -3.1811    3.1959   -0.1350 C   0  0  0  1  0  0  0  0  0  0  0  0
   -2.9827    3.4574   -1.1534 H   0  0  0  1  0  0  0  0  0  0  0  0
  -11.2052    3.9523    3.2789 N   0  0  0  1  0  0  0  0  0  0  0  0
  -11.4345    4.3671   -0.1920 C   0  0  0  1  0  0  0  0  0  0  0  0
  -11.5240    5.7467   -0.8043 C   0  0  0  1  0  0  0  0  0  0  0  0
  -12.2562    3.4930   -0.4648 O   0  0  0  1  0  0  0  0  0  0  0  0
  -11.9710    4.0388    4.5134 C   0  0  0  1  0  0  0  0  0  0  0  0
    1.8944    2.9365    0.1621 O   0  0  0  1  0  0  0  0  0  0  0  0
  -11.7463    1.8180    2.8629 O   0  0  0  1  0  0  0  0  0  0  0  0
  -10.4118    4.1703    0.6551 N   0  0  0  1  0  0  0  0  0  0  0  0
   -7.6299   -6.3215    1.4836 O   0  5  0  1  0  0  0  0  0  0  0  0
   -4.4722    1.0539   -0.2051 N   0  0  0  1  0  0  0  0  0  0  0  0
   -7.4448   -4.2696    2.4826 O   0  0  0  1  0  0  0  0  0  0  0  0
   -7.9677    2.3932    0.3453 C   0  0  0  1  0  0  0  0  0  0  0  0
   -8.8232    2.5421    1.5940 C   0  0  0  1  0  0  0  0  0  0  0  0
   -2.3224    0.7726    0.2844 C   0  0  0  1  0  0  0  0  0  0  0  0
   -6.5818    1.8764    0.6998 C   0  0  0  1  0  0  0  0  0  0  0  0
   -2.9418   -0.4858    0.2766 C   0  0  0  1  0  0  0  0  0  0  0  0
    0.9382    3.3555    2.3616 C   0  0  0  1  0  0  0  0  0  0  0  0
  -10.2892    2.8668    1.2906 C   0  0  0  1  0  0  0  0  0  0  0  0
   -5.7486    1.6845   -0.5432 C   0  0  0  1  0  0  0  0  0  0  0  0
   -2.2708   -1.8105    0.5530 C   0  0  0  1  0  0  0  0  0  0  0  0
  -11.1230    2.8243    2.5677 C   0  0  0  1  0  0  0  0  0  0  0  0
    1.0612    2.4039    1.1872 C   0  0  0  1  0  0  0  0  0  0  0  0
    2.2423    3.5519    3.1172 C   0  0  0  1  0  0  0  0  0  0  0  0
   -0.9057    0.9688    0.5672 C   0  0  0  1  0  0  0  0  0  0  0  0
    2.1879    4.6845    4.1282 C   0  0  0  1  0  0  0  0  0  0  0  0
   -0.2900    2.1237    0.6099 C   0  0  0  1  0  0  0  0  0  0  0  0
   -3.2963    1.7151   -0.0163 C   0  0  0  1  0  0  0  0  0  0  0  0
    3.4452    4.7094    4.9759 C   0  0  0  1  0  0  0  0  0  0  0  0
   -4.2756   -0.2976   -0.0292 C   0  0  0  1  0  0  0  0  0  0  0  0
   -2.0054   -2.0836    1.9995 C   0  0  0  1  0  0  0  0  0  0  0  0
   -2.5164   -3.0444    2.7278 C   0  0  0  1  0  0  0  0  0  0  0  0
   -3.2275   -4.2534    2.1814 C   0  0  0  1  0  0  0  0  0  0  0  0
    3.3357    5.6175    6.1898 C   0  0  0  1  0  0  0  0  0  0  0  0
   -4.7470   -4.1388    2.2586 C   0  0  0  1  0  0  0  0  0  0  0  0
   -5.4711   -5.3739    1.7483 C   0  0  0  1  0  0  0  0  0  0  0  0
   -6.9417   -5.2458    1.9513 C   0  0  0  1  0  0  0  0  0  0  0  0
  -10.7334    4.7491    2.9582 H   0  0  0  1  0  0  0  0  0  0  0  0
  -11.5413    6.4819   -0.0271 H   0  0  0  1  0  0  0  0  0  0  0  0
  -12.4192    5.8212   -1.3855 H   0  0  0  1  0  0  0  0  0  0  0  0
  -10.6747    5.9131   -1.4335 H   0  0  0  1  0  0  0  0  0  0  0  0
  -12.8704    3.4674    4.4166 H   0  0  0  1  0  0  0  0  0  0  0  0
  -12.2177    5.0615    4.7088 H   0  0  0  1  0  0  0  0  0  0  0  0
  -11.3878    3.6512    5.3225 H   0  0  0  1  0  0  0  0  0  0  0  0
    2.1633    3.8273    0.3982 H   0  0  0  1  0  0  0  0  0  0  0  0
   -9.7663    4.8840    0.8402 H   0  0  0  1  0  0  0  0  0  0  0  0
   -7.8752    3.3462   -0.1324 H   0  0  0  1  0  0  0  0  0  0  0  0
   -8.4392    1.7031   -0.3228 H   0  0  0  1  0  0  0  0  0  0  0  0
   -8.4173    3.3319    2.1911 H   0  0  0  1  0  0  0  0  0  0  0  0
   -8.7855    1.6242    2.1425 H   0  0  0  1  0  0  0  0  0  0  0  0
   -6.6761    0.9391    1.2072 H   0  0  0  1  0  0  0  0  0  0  0  0
   -6.0975    2.5827    1.3412 H   0  0  0  1  0  0  0  0  0  0  0  0
    0.2086    2.9648    3.0398 H   0  0  0  1  0  0  0  0  0  0  0  0
    0.6120    4.3064    1.9950 H   0  0  0  1  0  0  0  0  0  0  0  0
  -10.6631    2.1177    0.6244 H   0  0  0  1  0  0  0  0  0  0  0  0
   -6.2795    1.0603   -1.2312 H   0  0  0  1  0  0  0  0  0  0  0  0
   -5.5634    2.6367   -0.9946 H   0  0  0  1  0  0  0  0  0  0  0  0
   -1.3355   -1.8257    0.0334 H   0  0  0  1  0  0  0  0  0  0  0  0
   -2.9012   -2.5888    0.1766 H   0  0  0  1  0  0  0  0  0  0  0  0
    1.4728    1.4820    1.5417 H   0  0  0  1  0  0  0  0  0  0  0  0
    3.0156    3.7659    2.4093 H   0  0  0  1  0  0  0  0  0  0  0  0
    2.4738    2.6451    3.6359 H   0  0  0  1  0  0  0  0  0  0  0  0
   -0.3354    0.1188    0.7508 H   0  0  0  1  0  0  0  0  0  0  0  0
    1.3386    4.5466    4.7643 H   0  0  0  1  0  0  0  0  0  0  0  0
    2.0971    5.6151    3.6080 H   0  0  0  1  0  0  0  0  0  0  0  0
   -0.7951    2.9340    0.1978 H   0  0  0  1  0  0  0  0  0  0  0  0
    4.2571    5.0513    4.3685 H   0  0  0  1  0  0  0  0  0  0  0  0
    3.6463    3.7142    5.3137 H   0  0  0  1  0  0  0  0  0  0  0  0
   -1.3431   -1.4407    2.4787 H   0  0  0  1  0  0  0  0  0  0  0  0
   -2.4242   -2.9663    3.7608 H   0  0  0  1  0  0  0  0  0  0  0  0
   -2.9217   -5.1112    2.7432 H   0  0  0  1  0  0  0  0  0  0  0  0
   -2.9471   -4.3792    1.1565 H   0  0  0  1  0  0  0  0  0  0  0  0
    4.2022    5.4963    6.8058 H   0  0  0  1  0  0  0  0  0  0  0  0
    2.4613    5.3597    6.7500 H   0  0  0  1  0  0  0  0  0  0  0  0
    3.2666    6.6357    5.8682 H   0  0  0  1  0  0  0  0  0  0  0  0
   -5.0541   -3.2987    1.6715 H   0  0  0  1  0  0  0  0  0  0  0  0
   -5.0239   -3.9811    3.2801 H   0  0  0  1  0  0  0  0  0  0  0  0
   -5.1172   -6.2327    2.2796 H   0  0  0  1  0  0  0  0  0  0  0  0
   -5.2701   -5.4921    0.7041 H   0  0  0  1  0  0  0  0  0  0  0  0
  1 34  1  0  0  0  0
  2  4  1  0  0  0  0
  3  4  1  0  0  0  0
  4  5  1  0  0  0  0
  4 32  1  0  0  0  0
  6 10  1  0  0  0  0
  6 26  1  0  0  0  0
  6 42  1  0  0  0  0
  7  8  1  0  0  0  0
  7  9  2  0  0  0  0
  7 13  1  0  0  0  0
  8 43  1  0  0  0  0
  8 44  1  0  0  0  0
  8 45  1  0  0  0  0
 10 46  1  0  0  0  0
 10 47  1  0  0  0  0
 10 48  1  0  0  0  0
 11 27  1  0  0  0  0
 11 49  1  0  0  0  0
 12 26  2  0  0  0  0
 13 23  1  0  0  0  0
 13 50  1  0  0  0  0
 14 41  1  0  0  0  0
 15 24  1  0  0  0  0
 15 32  4  0  0  0  0
 15 34  4  0  0  0  0
 16 41  2  0  0  0  0
 17 18  1  0  0  0  0
 17 20  1  0  0  0  0
 17 51  1  0  0  0  0
 17 52  1  0  0  0  0
 18 23  1  0  0  0  0
 18 53  1  0  0  0  0
 18 54  1  0  0  0  0
 19 21  4  0  0  0  0
 19 29  1  0  0  0  0
 19 32  4  0  0  0  0
 20 24  1  0  0  0  0
 20 55  1  0  0  0  0
 20 56  1  0  0  0  0
 21 25  1  0  0  0  0
 21 34  4  0  0  0  0
 22 27  1  0  0  0  0
 22 28  1  0  0  0  0
 22 57  1  0  0  0  0
 22 58  1  0  0  0  0
 23 26  1  0  0  0  0
 23 59  1  0  0  0  0
 24 60  1  0  0  0  0
 24 61  1  0  0  0  0
 25 35  1  0  0  0  0
 25 62  1  0  0  0  0
 25 63  1  0  0  0  0
 27 31  1  0  0  0  0
 27 64  1  0  0  0  0
 28 30  1  0  0  0  0
 28 65  1  0  0  0  0
 28 66  1  0  0  0  0
 29 31  2  0  0  0  0
 29 67  1  0  0  0  0
 30 33  1  0  0  0  0
 30 68  1  0  0  0  0
 30 69  1  0  0  0  0
 31 70  1  0  0  0  0
 33 38  1  0  0  0  0
 33 71  1  0  0  0  0
 33 72  1  0  0  0  0
 35 36  2  0  0  0  0
 35 73  1  0  0  0  0
 36 37  1  0  0  0  0
 36 74  1  0  0  0  0
 37 39  1  0  0  0  0
 37 75  1  0  0  0  0
 37 76  1  0  0  0  0
 38 77  1  0  0  0  0
 38 78  1  0  0  0  0
 38 79  1  0  0  0  0
 39 40  1  0  0  0  0
 39 80  1  0  0  0  0
 39 81  1  0  0  0  0
 40 41  1  0  0  0  0
 40 82  1  0  0  0  0
 40 83  1  0  0  0  0
M  END
> <ConfClashScore>
0 

> <ConfOneFourInteractionScore>
-0.98718 

> <ConfScore>
-0.337872 

> <ConfScorePBest>
0.00780535 

> <ConfTolerance>
1.65851 

$$$$
9548876
  PyMOL2.2          3D                             0

 83 83  0  0  0  0  0  0  0  0999 V2000
   -4.9804   -1.0655   -0.1283 H   0  0  0  1  0  0  0  0  0  0  0  0
   -2.4816    3.4224   -0.9320 H   0  0  0  1  0  0  0  0  0  0  0  0
   -2.7871    3.5829    0.7807 H   0  0  0  1  0  0  0  0  0  0  0  0
   -3.1654    3.1938   -0.1415 C   0  0  0  1  0  0  0  0  0  0  0  0
   -4.1159    3.6373   -0.3531 H   0  0  0  1  0  0  0  0  0  0  0  0
  -10.7105    1.5065   -5.5469 N   0  0  0  1  0  0  0  0  0  0  0  0
  -11.7921    1.4543   -2.7128 C   0  0  0  1  0  0  0  0  0  0  0  0
  -12.4960    0.3034   -2.0207 C   0  0  0  1  0  0  0  0  0  0  0  0
  -12.4305    2.4026   -3.1675 O   0  0  0  1  0  0  0  0  0  0  0  0
  -11.3357    1.5640   -6.8598 C   0  0  0  1  0  0  0  0  0  0  0  0
    1.5717    1.5151    1.8311 O   0  0  0  1  0  0  0  0  0  0  0  0
  -10.1743    3.6815   -5.4932 O   0  0  0  1  0  0  0  0  0  0  0  0
  -10.4543    1.4067   -2.8139 N   0  0  0  1  0  0  0  0  0  0  0  0
    1.3907   -6.3412    3.4808 O   0  5  0  1  0  0  0  0  0  0  0  0
   -4.4846    1.0361   -0.2281 N   0  0  0  1  0  0  0  0  0  0  0  0
    2.6598   -5.3465    5.0992 O   0  0  0  1  0  0  0  0  0  0  0  0
   -7.6161    2.2065   -2.0755 C   0  0  0  1  0  0  0  0  0  0  0  0
   -8.1831    2.1651   -3.4729 C   0  0  0  1  0  0  0  0  0  0  0  0
   -2.3364    0.7903    0.2866 C   0  0  0  1  0  0  0  0  0  0  0  0
   -6.1868    1.7090   -1.9343 C   0  0  0  1  0  0  0  0  0  0  0  0
   -2.9364   -0.4774    0.2791 C   0  0  0  1  0  0  0  0  0  0  0  0
    1.9436    3.0719    0.0547 C   0  0  0  1  0  0  0  0  0  0  0  0
   -9.6917    2.4228   -3.5238 C   0  0  0  1  0  0  0  0  0  0  0  0
   -5.7672    1.6919   -0.4852 C   0  0  0  1  0  0  0  0  0  0  0  0
   -2.3027   -1.8191    0.5610 C   0  0  0  1  0  0  0  0  0  0  0  0
  -10.1877    2.5855   -4.9575 C   0  0  0  1  0  0  0  0  0  0  0  0
    0.9570    2.5893    1.1068 C   0  0  0  1  0  0  0  0  0  0  0  0
    1.2998    4.1074   -0.8529 C   0  0  0  1  0  0  0  0  0  0  0  0
   -0.9255    1.0097    0.5839 C   0  0  0  1  0  0  0  0  0  0  0  0
    2.1830    4.5182   -2.0198 C   0  0  0  1  0  0  0  0  0  0  0  0
   -0.3684    2.1938    0.5373 C   0  0  0  1  0  0  0  0  0  0  0  0
   -3.3210    1.7162   -0.0301 C   0  0  0  1  0  0  0  0  0  0  0  0
    1.6297    5.6790   -2.8088 C   0  0  0  1  0  0  0  0  0  0  0  0
   -4.2695   -0.3113   -0.0423 C   0  0  0  1  0  0  0  0  0  0  0  0
   -2.5108   -2.2572    1.9759 C   0  0  0  1  0  0  0  0  0  0  0  0
   -1.5604   -2.6554    2.7839 C   0  0  0  1  0  0  0  0  0  0  0  0
   -0.0882   -2.4450    2.5508 C   0  0  0  1  0  0  0  0  0  0  0  0
    2.6118    6.3580   -3.7495 C   0  0  0  1  0  0  0  0  0  0  0  0
    0.6804   -3.7457    2.7441 C   0  0  0  1  0  0  0  0  0  0  0  0
    0.7720   -4.1822    4.2005 C   0  0  0  1  0  0  0  0  0  0  0  0
    1.6987   -5.3397    4.3478 C   0  0  0  1  0  0  0  0  0  0  0  0
  -10.6716    0.6463   -5.0789 H   0  0  0  1  0  0  0  0  0  0  0  0
  -11.8928   -0.5777   -2.0898 H   0  0  0  1  0  0  0  0  0  0  0  0
  -13.4398    0.1271   -2.4929 H   0  0  0  1  0  0  0  0  0  0  0  0
  -12.6521    0.5486   -0.9909 H   0  0  0  1  0  0  0  0  0  0  0  0
  -10.5933    1.4146   -7.6158 H   0  0  0  1  0  0  0  0  0  0  0  0
  -11.7940    2.5214   -6.9947 H   0  0  0  1  0  0  0  0  0  0  0  0
  -12.0794    0.7983   -6.9343 H   0  0  0  1  0  0  0  0  0  0  0  0
    2.3990    1.8179    2.2126 H   0  0  0  1  0  0  0  0  0  0  0  0
   -9.9745    0.6619   -2.3951 H   0  0  0  1  0  0  0  0  0  0  0  0
   -8.2387    1.6023   -1.4492 H   0  0  0  1  0  0  0  0  0  0  0  0
   -7.6468    3.2212   -1.7373 H   0  0  0  1  0  0  0  0  0  0  0  0
   -7.9898    1.1984   -3.8889 H   0  0  0  1  0  0  0  0  0  0  0  0
   -7.6913    2.9117   -4.0607 H   0  0  0  1  0  0  0  0  0  0  0  0
   -5.5341    2.3572   -2.4809 H   0  0  0  1  0  0  0  0  0  0  0  0
   -6.1196    0.7174   -2.3307 H   0  0  0  1  0  0  0  0  0  0  0  0
    2.2630    2.2384   -0.5353 H   0  0  0  1  0  0  0  0  0  0  0  0
    2.7897    3.5099    0.5418 H   0  0  0  1  0  0  0  0  0  0  0  0
   -9.8608    3.3574   -3.0309 H   0  0  0  1  0  0  0  0  0  0  0  0
   -5.6976    2.7045   -0.1465 H   0  0  0  1  0  0  0  0  0  0  0  0
   -6.5217    1.1792    0.0741 H   0  0  0  1  0  0  0  0  0  0  0  0
   -1.2516   -1.7497    0.3731 H   0  0  0  1  0  0  0  0  0  0  0  0
   -2.7349   -2.5481   -0.0923 H   0  0  0  1  0  0  0  0  0  0  0  0
    0.7874    3.4012    1.7829 H   0  0  0  1  0  0  0  0  0  0  0  0
    1.0794    4.9781   -0.2713 H   0  0  0  1  0  0  0  0  0  0  0  0
    0.3910    3.6988   -1.2427 H   0  0  0  1  0  0  0  0  0  0  0  0
   -0.3378    0.1920    0.8437 H   0  0  0  1  0  0  0  0  0  0  0  0
    2.2880    3.6805   -2.6771 H   0  0  0  1  0  0  0  0  0  0  0  0
    3.1433    4.7949   -1.6375 H   0  0  0  1  0  0  0  0  0  0  0  0
   -0.9056    2.9402    0.0516 H   0  0  0  1  0  0  0  0  0  0  0  0
    1.2785    6.4125   -2.1136 H   0  0  0  1  0  0  0  0  0  0  0  0
    0.8089    5.3188   -3.3932 H   0  0  0  1  0  0  0  0  0  0  0  0
   -3.4828   -2.2446    2.3455 H   0  0  0  1  0  0  0  0  0  0  0  0
   -1.8438   -3.1542    3.6514 H   0  0  0  1  0  0  0  0  0  0  0  0
    0.2761   -1.7159    3.2441 H   0  0  0  1  0  0  0  0  0  0  0  0
    0.0621   -2.0940    1.5513 H   0  0  0  1  0  0  0  0  0  0  0  0
    3.0492    5.6273   -4.3974 H   0  0  0  1  0  0  0  0  0  0  0  0
    3.3812    6.8342   -3.1784 H   0  0  0  1  0  0  0  0  0  0  0  0
    2.0963    7.0904   -4.3350 H   0  0  0  1  0  0  0  0  0  0  0  0
    1.6728   -3.6126    2.3668 H   0  0  0  1  0  0  0  0  0  0  0  0
    0.1877   -4.5166    2.1893 H   0  0  0  1  0  0  0  0  0  0  0  0
   -0.2010   -4.4658    4.5436 H   0  0  0  1  0  0  0  0  0  0  0  0
    1.1344   -3.3655    4.7893 H   0  0  0  1  0  0  0  0  0  0  0  0
  1 34  1  0  0  0  0
  2  4  1  0  0  0  0
  3  4  1  0  0  0  0
  4  5  1  0  0  0  0
  4 32  1  0  0  0  0
  6 10  1  0  0  0  0
  6 26  1  0  0  0  0
  6 42  1  0  0  0  0
  7  8  1  0  0  0  0
  7  9  2  0  0  0  0
  7 13  1  0  0  0  0
  8 43  1  0  0  0  0
  8 44  1  0  0  0  0
  8 45  1  0  0  0  0
 10 46  1  0  0  0  0
 10 47  1  0  0  0  0
 10 48  1  0  0  0  0
 11 27  1  0  0  0  0
 11 49  1  0  0  0  0
 12 26  2  0  0  0  0
 13 23  1  0  0  0  0
 13 50  1  0  0  0  0
 14 41  1  0  0  0  0
 15 24  1  0  0  0  0
 15 32  4  0  0  0  0
 15 34  4  0  0  0  0
 16 41  2  0  0  0  0
 17 18  1  0  0  0  0
 17 20  1  0  0  0  0
 17 51  1  0  0  0  0
 17 52  1  0  0  0  0
 18 23  1  0  0  0  0
 18 53  1  0  0  0  0
 18 54  1  0  0  0  0
 19 21  4  0  0  0  0
 19 29  1  0  0  0  0
 19 32  4  0  0  0  0
 20 24  1  0  0  0  0
 20 55  1  0  0  0  0
 20 56  1  0  0  0  0
 21 25  1  0  0  0  0
 21 34  4  0  0  0  0
 22 27  1  0  0  0  0
 22 28  1  0  0  0  0
 22 57  1  0  0  0  0
 22 58  1  0  0  0  0
 23 26  1  0  0  0  0
 23 59  1  0  0  0  0
 24 60  1  0  0  0  0
 24 61  1  0  0  0  0
 25 35  1  0  0  0  0
 25 62  1  0  0  0  0
 25 63  1  0  0  0  0
 27 31  1  0  0  0  0
 27 64  1  0  0  0  0
 28 30  1  0  0  0  0
 28 65  1  0  0  0  0
 28 66  1  0  0  0  0
 29 31  2  0  0  0  0
 29 67  1  0  0  0  0
 30 33  1  0  0  0  0
 30 68  1  0  0  0  0
 30 69  1  0  0  0  0
 31 70  1  0  0  0  0
 33 38  1  0  0  0  0
 33 71  1  0  0  0  0
 33 72  1  0  0  0  0
 35 36  2  0  0  0  0
 35 73  1  0  0  0  0
 36 37  1  0  0  0  0
 36 74  1  0  0  0  0
 37 39  1  0  0  0  0
 37 75  1  0  0  0  0
 37 76  1  0  0  0  0
 38 77  1  0  0  0  0
 38 78  1  0  0  0  0
 38 79  1  0  0  0  0
 39 40  1  0  0  0  0
 39 80  1  0  0  0  0
 39 81  1  0  0  0  0
 40 41  1  0  0  0  0
 40 82  1  0  0  0  0
 40 83  1  0  0  0  0
M  END
> <ConfClashScore>
0 

> <ConfOneFourInteractionScore>
-0.98891 

> <ConfScore>
-0.263284 

> <ConfScorePBest>
0.00777687 

> <ConfTolerance>
1.25287 

$$$$
9548876
  PyMOL2.2          3D                             0

 83 83  0  0  0  0  0  0  0  0999 V2000
   -5.0253   -1.0306   -0.0787 H   0  0  0  1  0  0  0  0  0  0  0  0
   -2.4069    3.4615   -0.8199 H   0  0  0  1  0  0  0  0  0  0  0  0
   -2.9280    3.5640    0.8445 H   0  0  0  1  0  0  0  0  0  0  0  0
   -3.1737    3.1866   -0.1261 C   0  0  0  1  0  0  0  0  0  0  0  0
   -4.1076    3.6007   -0.4445 H   0  0  0  1  0  0  0  0  0  0  0  0
   -4.9178    0.6545   -7.4739 N   0  0  0  1  0  0  0  0  0  0  0  0
   -4.1412   -1.9510   -5.7778 C   0  0  0  1  0  0  0  0  0  0  0  0
   -2.7064   -2.4063   -5.5445 C   0  0  0  1  0  0  0  0  0  0  0  0
   -4.9546   -2.6598   -6.3691 O   0  0  0  1  0  0  0  0  0  0  0  0
   -4.9937    0.9800   -8.8903 C   0  0  0  1  0  0  0  0  0  0  0  0
    1.3772    2.2448    1.5965 O   0  0  0  1  0  0  0  0  0  0  0  0
   -7.1097    0.1768   -7.2410 O   0  0  0  1  0  0  0  0  0  0  0  0
   -4.4077   -0.7321   -5.2826 N   0  0  0  1  0  0  0  0  0  0  0  0
   -3.6386   -9.0230   -1.9588 O   0  5  0  1  0  0  0  0  0  0  0  0
   -4.4710    1.0537   -0.2251 N   0  0  0  1  0  0  0  0  0  0  0  0
   -4.2492   -8.8660    0.2100 O   0  0  0  1  0  0  0  0  0  0  0  0
   -5.7852    0.8063   -2.9358 C   0  0  0  1  0  0  0  0  0  0  0  0
   -5.8107    1.1446   -4.4058 C   0  0  0  1  0  0  0  0  0  0  0  0
   -2.3181    0.7521    0.2379 C   0  0  0  1  0  0  0  0  0  0  0  0
   -5.8599    2.0283   -2.0349 C   0  0  0  1  0  0  0  0  0  0  0  0
   -2.9550   -0.4972    0.2663 C   0  0  0  1  0  0  0  0  0  0  0  0
    1.0805    0.9345    3.6007 C   0  0  0  1  0  0  0  0  0  0  0  0
   -5.7116   -0.0866   -5.3148 C   0  0  0  1  0  0  0  0  0  0  0  0
   -5.7436    1.6951   -0.5573 C   0  0  0  1  0  0  0  0  0  0  0  0
   -2.2479   -1.7975    0.5674 C   0  0  0  1  0  0  0  0  0  0  0  0
   -5.9907    0.2871   -6.7675 C   0  0  0  1  0  0  0  0  0  0  0  0
    1.0992    0.9409    2.0672 C   0  0  0  1  0  0  0  0  0  0  0  0
    0.8572   -0.4224    4.2463 C   0  0  0  1  0  0  0  0  0  0  0  0
   -0.9229    1.0135    0.5778 C   0  0  0  1  0  0  0  0  0  0  0  0
    0.5558   -0.3397    5.7304 C   0  0  0  1  0  0  0  0  0  0  0  0
   -0.2112    0.4615    1.5283 C   0  0  0  1  0  0  0  0  0  0  0  0
   -3.2832    1.7018   -0.0682 C   0  0  0  1  0  0  0  0  0  0  0  0
    0.2566   -1.6649    6.4120 C   0  0  0  1  0  0  0  0  0  0  0  0
   -4.2906   -0.2965   -0.0233 C   0  0  0  1  0  0  0  0  0  0  0  0
   -2.9076   -2.6362    1.6155 C   0  0  0  1  0  0  0  0  0  0  0  0
   -3.4752   -3.7986    1.3983 C   0  0  0  1  0  0  0  0  0  0  0  0
   -3.2897   -4.6284    0.1562 C   0  0  0  1  0  0  0  0  0  0  0  0
    0.0221   -1.5336    7.9081 C   0  0  0  1  0  0  0  0  0  0  0  0
   -3.4613   -6.1272    0.3422 C   0  0  0  1  0  0  0  0  0  0  0  0
   -3.4377   -6.9032   -0.9646 C   0  0  0  1  0  0  0  0  0  0  0  0
   -3.8223   -8.3334   -0.8011 C   0  0  0  1  0  0  0  0  0  0  0  0
   -4.0495    0.7065   -7.0225 H   0  0  0  1  0  0  0  0  0  0  0  0
   -2.5746   -3.3904   -5.9434 H   0  0  0  1  0  0  0  0  0  0  0  0
   -2.5022   -2.4171   -4.4942 H   0  0  0  1  0  0  0  0  0  0  0  0
   -2.0345   -1.7312   -6.0321 H   0  0  0  1  0  0  0  0  0  0  0  0
   -4.0182    0.9136   -9.3248 H   0  0  0  1  0  0  0  0  0  0  0  0
   -5.3692    1.9751   -9.0077 H   0  0  0  1  0  0  0  0  0  0  0  0
   -5.6496    0.2907   -9.3798 H   0  0  0  1  0  0  0  0  0  0  0  0
    1.3590    2.8617    2.3318 H   0  0  0  1  0  0  0  0  0  0  0  0
   -3.6686   -0.2398   -4.8681 H   0  0  0  1  0  0  0  0  0  0  0  0
   -4.8760    0.2835   -2.7237 H   0  0  0  1  0  0  0  0  0  0  0  0
   -6.6202    0.1733   -2.7189 H   0  0  0  1  0  0  0  0  0  0  0  0
   -4.9854    1.7913   -4.6194 H   0  0  0  1  0  0  0  0  0  0  0  0
   -6.7275    1.6525   -4.6212 H   0  0  0  1  0  0  0  0  0  0  0  0
   -6.7985    2.5147   -2.2001 H   0  0  0  1  0  0  0  0  0  0  0  0
   -5.0626    2.6921   -2.2968 H   0  0  0  1  0  0  0  0  0  0  0  0
    0.2956    1.5862    3.9233 H   0  0  0  1  0  0  0  0  0  0  0  0
    2.0214    1.3117    3.9433 H   0  0  0  1  0  0  0  0  0  0  0  0
   -6.4562   -0.7889   -5.0030 H   0  0  0  1  0  0  0  0  0  0  0  0
   -5.8283    2.6008    0.0061 H   0  0  0  1  0  0  0  0  0  0  0  0
   -6.5409    1.0330   -0.2913 H   0  0  0  1  0  0  0  0  0  0  0  0
   -1.2561   -1.5693    0.8980 H   0  0  0  1  0  0  0  0  0  0  0  0
   -2.2006   -2.3687   -0.3362 H   0  0  0  1  0  0  0  0  0  0  0  0
    1.8638    0.2676    1.7402 H   0  0  0  1  0  0  0  0  0  0  0  0
    1.7402   -1.0116    4.1118 H   0  0  0  1  0  0  0  0  0  0  0  0
    0.0323   -0.8985    3.7586 H   0  0  0  1  0  0  0  0  0  0  0  0
   -0.4354    1.7236   -0.0051 H   0  0  0  1  0  0  0  0  0  0  0  0
   -0.2948    0.2965    5.8590 H   0  0  0  1  0  0  0  0  0  0  0  0
    1.4043    0.0960    6.2152 H   0  0  0  1  0  0  0  0  0  0  0  0
   -0.5991   -0.4040    1.9548 H   0  0  0  1  0  0  0  0  0  0  0  0
    1.0862   -2.3221    6.2551 H   0  0  0  1  0  0  0  0  0  0  0  0
   -0.6210   -2.0850    5.9667 H   0  0  0  1  0  0  0  0  0  0  0  0
   -2.9170   -2.2705    2.5890 H   0  0  0  1  0  0  0  0  0  0  0  0
   -4.1000   -4.1750    2.1397 H   0  0  0  1  0  0  0  0  0  0  0  0
   -2.3011   -4.4527   -0.2135 H   0  0  0  1  0  0  0  0  0  0  0  0
   -4.0055   -4.3017   -0.5690 H   0  0  0  1  0  0  0  0  0  0  0  0
    0.9335   -1.2448    8.3885 H   0  0  0  1  0  0  0  0  0  0  0  0
   -0.3059   -2.4731    8.3013 H   0  0  0  1  0  0  0  0  0  0  0  0
   -0.7265   -0.7904    8.0876 H   0  0  0  1  0  0  0  0  0  0  0  0
   -4.3998   -6.3039    0.8247 H   0  0  0  1  0  0  0  0  0  0  0  0
   -2.6672   -6.4850    0.9637 H   0  0  0  1  0  0  0  0  0  0  0  0
   -2.4476   -6.8607   -1.3680 H   0  0  0  1  0  0  0  0  0  0  0  0
   -4.1214   -6.4425   -1.6467 H   0  0  0  1  0  0  0  0  0  0  0  0
  1 34  1  0  0  0  0
  2  4  1  0  0  0  0
  3  4  1  0  0  0  0
  4  5  1  0  0  0  0
  4 32  1  0  0  0  0
  6 10  1  0  0  0  0
  6 26  1  0  0  0  0
  6 42  1  0  0  0  0
  7  8  1  0  0  0  0
  7  9  2  0  0  0  0
  7 13  1  0  0  0  0
  8 43  1  0  0  0  0
  8 44  1  0  0  0  0
  8 45  1  0  0  0  0
 10 46  1  0  0  0  0
 10 47  1  0  0  0  0
 10 48  1  0  0  0  0
 11 27  1  0  0  0  0
 11 49  1  0  0  0  0
 12 26  2  0  0  0  0
 13 23  1  0  0  0  0
 13 50  1  0  0  0  0
 14 41  1  0  0  0  0
 15 24  1  0  0  0  0
 15 32  4  0  0  0  0
 15 34  4  0  0  0  0
 16 41  2  0  0  0  0
 17 18  1  0  0  0  0
 17 20  1  0  0  0  0
 17 51  1  0  0  0  0
 17 52  1  0  0  0  0
 18 23  1  0  0  0  0
 18 53  1  0  0  0  0
 18 54  1  0  0  0  0
 19 21  4  0  0  0  0
 19 29  1  0  0  0  0
 19 32  4  0  0  0  0
 20 24  1  0  0  0  0
 20 55  1  0  0  0  0
 20 56  1  0  0  0  0
 21 25  1  0  0  0  0
 21 34  4  0  0  0  0
 22 27  1  0  0  0  0
 22 28  1  0  0  0  0
 22 57  1  0  0  0  0
 22 58  1  0  0  0  0
 23 26  1  0  0  0  0
 23 59  1  0  0  0  0
 24 60  1  0  0  0  0
 24 61  1  0  0  0  0
 25 35  1  0  0  0  0
 25 62  1  0  0  0  0
 25 63  1  0  0  0  0
 27 31  1  0  0  0  0
 27 64  1  0  0  0  0
 28 30  1  0  0  0  0
 28 65  1  0  0  0  0
 28 66  1  0  0  0  0
 29 31  2  0  0  0  0
 29 67  1  0  0  0  0
 30 33  1  0  0  0  0
 30 68  1  0  0  0  0
 30 69  1  0  0  0  0
 31 70  1  0  0  0  0
 33 38  1  0  0  0  0
 33 71  1  0  0  0  0
 33 72  1  0  0  0  0
 35 36  2  0  0  0  0
 35 73  1  0  0  0  0
 36 37  1  0  0  0  0
 36 74  1  0  0  0  0
 37 39  1  0  0  0  0
 37 75  1  0  0  0  0
 37 76  1  0  0  0  0
 38 77  1  0  0  0  0
 38 78  1  0  0  0  0
 38 79  1  0  0  0  0
 39 40  1  0  0  0  0
 39 80  1  0  0  0  0
 39 81  1  0  0  0  0
 40 41  1  0  0  0  0
 40 82  1  0  0  0  0
 40 83  1  0  0  0  0
M  END
> <ConfClashScore>
0 

> <ConfOneFourInteractionScore>
-0.984625 

> <ConfScore>
-0.241556 

> <ConfScorePBest>
0.00774839 

> <ConfTolerance>
1.85752 

$$$$
9548876
  PyMOL2.2          3D                             0

 83 83  0  0  0  0  0  0  0  0999 V2000
   -5.0144   -1.0366   -0.1376 H   0  0  0  1  0  0  0  0  0  0  0  0
   -2.8744    3.4416   -1.1395 H   0  0  0  1  0  0  0  0  0  0  0  0
   -2.4285    3.5382    0.5471 H   0  0  0  1  0  0  0  0  0  0  0  0
   -3.1677    3.1872   -0.1424 C   0  0  0  1  0  0  0  0  0  0  0  0
   -4.1091    3.6446    0.0799 H   0  0  0  1  0  0  0  0  0  0  0  0
   -9.6825    3.3079   -6.1870 N   0  0  0  1  0  0  0  0  0  0  0  0
  -11.3120    2.9476   -2.9909 C   0  0  0  1  0  0  0  0  0  0  0  0
  -12.4100    1.9033   -2.9339 C   0  0  0  1  0  0  0  0  0  0  0  0
  -11.4495    4.0402   -2.4659 O   0  0  0  1  0  0  0  0  0  0  0  0
   -9.8413    3.6599   -7.5902 C   0  0  0  1  0  0  0  0  0  0  0  0
    1.7607    1.8954    0.8609 O   0  0  0  1  0  0  0  0  0  0  0  0
   -8.8267    5.2628   -5.4570 O   0  0  0  1  0  0  0  0  0  0  0  0
  -10.2058    2.5901   -3.6450 N   0  0  0  1  0  0  0  0  0  0  0  0
   -5.3244   -7.2452    0.4252 O   0  5  0  1  0  0  0  0  0  0  0  0
   -4.4724    1.0540   -0.2269 N   0  0  0  1  0  0  0  0  0  0  0  0
   -5.8227   -5.1255   -0.2661 O   0  0  0  1  0  0  0  0  0  0  0  0
   -7.4806    2.4583   -2.1767 C   0  0  0  1  0  0  0  0  0  0  0  0
   -7.7537    2.7980   -3.6339 C   0  0  0  1  0  0  0  0  0  0  0  0
   -2.3312    0.7587    0.2911 C   0  0  0  1  0  0  0  0  0  0  0  0
   -6.0982    1.8730   -1.9436 C   0  0  0  1  0  0  0  0  0  0  0  0
   -2.9589   -0.4954    0.2766 C   0  0  0  1  0  0  0  0  0  0  0  0
    1.8371    0.1346    2.5458 C   0  0  0  1  0  0  0  0  0  0  0  0
   -9.0943    3.5066   -3.8513 C   0  0  0  1  0  0  0  0  0  0  0  0
   -5.7624    1.6952   -0.4836 C   0  0  0  1  0  0  0  0  0  0  0  0
   -2.2505   -1.7964    0.5718 C   0  0  0  1  0  0  0  0  0  0  0  0
   -9.1618    4.1078   -5.2520 C   0  0  0  1  0  0  0  0  0  0  0  0
    1.4881    0.5236    1.1021 C   0  0  0  1  0  0  0  0  0  0  0  0
    3.2679    0.4699    2.9307 C   0  0  0  1  0  0  0  0  0  0  0  0
   -0.9225    1.0073    0.5846 C   0  0  0  1  0  0  0  0  0  0  0  0
    3.6265    0.0439    4.3414 C   0  0  0  1  0  0  0  0  0  0  0  0
    0.0585    0.1760    0.8323 C   0  0  0  1  0  0  0  0  0  0  0  0
   -3.2946    1.7074   -0.0235 C   0  0  0  1  0  0  0  0  0  0  0  0
    5.1209    0.0615    4.6143 C   0  0  0  1  0  0  0  0  0  0  0  0
   -4.2873   -0.2986   -0.0468 C   0  0  0  1  0  0  0  0  0  0  0  0
   -1.4606   -2.3482   -0.5723 C   0  0  0  1  0  0  0  0  0  0  0  0
   -1.6295   -3.4895   -1.1575 C   0  0  0  1  0  0  0  0  0  0  0  0
   -2.4266   -4.6900   -0.7111 C   0  0  0  1  0  0  0  0  0  0  0  0
    5.7177    1.4595    4.6109 C   0  0  0  1  0  0  0  0  0  0  0  0
   -3.4020   -5.1271   -1.7999 C   0  0  0  1  0  0  0  0  0  0  0  0
   -4.1723   -6.3930   -1.4479 C   0  0  0  1  0  0  0  0  0  0  0  0
   -5.2113   -6.1724   -0.4029 C   0  0  0  1  0  0  0  0  0  0  0  0
   -9.9798    2.4171   -5.9069 H   0  0  0  1  0  0  0  0  0  0  0  0
  -11.9849    0.9304   -3.0669 H   0  0  0  1  0  0  0  0  0  0  0  0
  -13.1209    2.0909   -3.7112 H   0  0  0  1  0  0  0  0  0  0  0  0
  -12.8989    1.9518   -1.9833 H   0  0  0  1  0  0  0  0  0  0  0  0
  -10.7414    4.2243   -7.7171 H   0  0  0  1  0  0  0  0  0  0  0  0
   -9.8945    2.7672   -8.1777 H   0  0  0  1  0  0  0  0  0  0  0  0
   -9.0047    4.2468   -7.9073 H   0  0  0  1  0  0  0  0  0  0  0  0
    1.5517    2.4066    1.6461 H   0  0  0  1  0  0  0  0  0  0  0  0
  -10.1392    1.6787   -3.9990 H   0  0  0  1  0  0  0  0  0  0  0  0
   -8.2098    1.7457   -1.8521 H   0  0  0  1  0  0  0  0  0  0  0  0
   -7.5724    3.3528   -1.5968 H   0  0  0  1  0  0  0  0  0  0  0  0
   -7.7543    1.8898   -4.1996 H   0  0  0  1  0  0  0  0  0  0  0  0
   -6.9711    3.4373   -3.9856 H   0  0  0  1  0  0  0  0  0  0  0  0
   -5.3741    2.5284   -2.3809 H   0  0  0  1  0  0  0  0  0  0  0  0
   -6.0495    0.9170   -2.4218 H   0  0  0  1  0  0  0  0  0  0  0  0
    1.6941   -0.9200    2.6570 H   0  0  0  1  0  0  0  0  0  0  0  0
    1.1768    0.6562    3.2067 H   0  0  0  1  0  0  0  0  0  0  0  0
   -9.1652    4.3054   -3.1430 H   0  0  0  1  0  0  0  0  0  0  0  0
   -5.7516    2.6614   -0.0241 H   0  0  0  1  0  0  0  0  0  0  0  0
   -6.5274    1.0955   -0.0364 H   0  0  0  1  0  0  0  0  0  0  0  0
   -2.9866   -2.5215    0.8497 H   0  0  0  1  0  0  0  0  0  0  0  0
   -1.5820   -1.6338    1.3913 H   0  0  0  1  0  0  0  0  0  0  0  0
    2.0952   -0.0716    0.4525 H   0  0  0  1  0  0  0  0  0  0  0  0
    3.4012    1.5286    2.8518 H   0  0  0  1  0  0  0  0  0  0  0  0
    3.9275   -0.0250    2.2489 H   0  0  0  1  0  0  0  0  0  0  0  0
   -0.6536    2.0118    0.5993 H   0  0  0  1  0  0  0  0  0  0  0  0
    3.2648   -0.9509    4.4977 H   0  0  0  1  0  0  0  0  0  0  0  0
    3.1483    0.7100    5.0288 H   0  0  0  1  0  0  0  0  0  0  0  0
   -0.1825   -0.8357    0.8426 H   0  0  0  1  0  0  0  0  0  0  0  0
    5.6104   -0.5181    3.8597 H   0  0  0  1  0  0  0  0  0  0  0  0
    5.2959   -0.3797    5.5732 H   0  0  0  1  0  0  0  0  0  0  0  0
   -0.6923   -1.7495   -0.9368 H   0  0  0  1  0  0  0  0  0  0  0  0
   -1.1438   -3.5950   -2.0710 H   0  0  0  1  0  0  0  0  0  0  0  0
   -2.9762   -4.4377    0.1716 H   0  0  0  1  0  0  0  0  0  0  0  0
   -1.7564   -5.4960   -0.4963 H   0  0  0  1  0  0  0  0  0  0  0  0
    6.7656    1.4010    4.8191 H   0  0  0  1  0  0  0  0  0  0  0  0
    5.2379    2.0536    5.3604 H   0  0  0  1  0  0  0  0  0  0  0  0
    5.5695    1.9079    3.6507 H   0  0  0  1  0  0  0  0  0  0  0  0
   -2.8495   -5.3050   -2.6988 H   0  0  0  1  0  0  0  0  0  0  0  0
   -4.1046   -4.3367   -1.9631 H   0  0  0  1  0  0  0  0  0  0  0  0
   -3.4789   -7.1250   -1.0896 H   0  0  0  1  0  0  0  0  0  0  0  0
   -4.6511   -6.7574   -2.3326 H   0  0  0  1  0  0  0  0  0  0  0  0
  1 34  1  0  0  0  0
  2  4  1  0  0  0  0
  3  4  1  0  0  0  0
  4  5  1  0  0  0  0
  4 32  1  0  0  0  0
  6 10  1  0  0  0  0
  6 26  1  0  0  0  0
  6 42  1  0  0  0  0
  7  8  1  0  0  0  0
  7  9  2  0  0  0  0
  7 13  1  0  0  0  0
  8 43  1  0  0  0  0
  8 44  1  0  0  0  0
  8 45  1  0  0  0  0
 10 46  1  0  0  0  0
 10 47  1  0  0  0  0
 10 48  1  0  0  0  0
 11 27  1  0  0  0  0
 11 49  1  0  0  0  0
 12 26  2  0  0  0  0
 13 23  1  0  0  0  0
 13 50  1  0  0  0  0
 14 41  1  0  0  0  0
 15 24  1  0  0  0  0
 15 32  4  0  0  0  0
 15 34  4  0  0  0  0
 16 41  2  0  0  0  0
 17 18  1  0  0  0  0
 17 20  1  0  0  0  0
 17 51  1  0  0  0  0
 17 52  1  0  0  0  0
 18 23  1  0  0  0  0
 18 53  1  0  0  0  0
 18 54  1  0  0  0  0
 19 21  4  0  0  0  0
 19 29  1  0  0  0  0
 19 32  4  0  0  0  0
 20 24  1  0  0  0  0
 20 55  1  0  0  0  0
 20 56  1  0  0  0  0
 21 25  1  0  0  0  0
 21 34  4  0  0  0  0
 22 27  1  0  0  0  0
 22 28  1  0  0  0  0
 22 57  1  0  0  0  0
 22 58  1  0  0  0  0
 23 26  1  0  0  0  0
 23 59  1  0  0  0  0
 24 60  1  0  0  0  0
 24 61  1  0  0  0  0
 25 35  1  0  0  0  0
 25 62  1  0  0  0  0
 25 63  1  0  0  0  0
 27 31  1  0  0  0  0
 27 64  1  0  0  0  0
 28 30  1  0  0  0  0
 28 65  1  0  0  0  0
 28 66  1  0  0  0  0
 29 31  2  0  0  0  0
 29 67  1  0  0  0  0
 30 33  1  0  0  0  0
 30 68  1  0  0  0  0
 30 69  1  0  0  0  0
 31 70  1  0  0  0  0
 33 38  1  0  0  0  0
 33 71  1  0  0  0  0
 33 72  1  0  0  0  0
 35 36  2  0  0  0  0
 35 73  1  0  0  0  0
 36 37  1  0  0  0  0
 36 74  1  0  0  0  0
 37 39  1  0  0  0  0
 37 75  1  0  0  0  0
 37 76  1  0  0  0  0
 38 77  1  0  0  0  0
 38 78  1  0  0  0  0
 38 79  1  0  0  0  0
 39 40  1  0  0  0  0
 39 80  1  0  0  0  0
 39 81  1  0  0  0  0
 40 41  1  0  0  0  0
 40 82  1  0  0  0  0
 40 83  1  0  0  0  0
M  END
> <ConfClashScore>
0 

> <ConfOneFourInteractionScore>
-0.98891 

> <ConfScore>
-0.226477 

> <ConfScorePBest>
0.00771991 

> <ConfTolerance>
1.33638 

$$$$
9548876
  PyMOL2.2          3D                             0

 83 83  0  0  0  0  0  0  0  0999 V2000
   -5.0149   -1.0319   -0.1084 H   0  0  0  1  0  0  0  0  0  0  0  0
   -3.7624    3.5342   -0.9509 H   0  0  0  1  0  0  0  0  0  0  0  0
   -2.1378    3.4448   -0.3143 H   0  0  0  1  0  0  0  0  0  0  0  0
   -3.1613    3.1889   -0.1358 C   0  0  0  1  0  0  0  0  0  0  0  0
   -3.4919    3.6501    0.7713 H   0  0  0  1  0  0  0  0  0  0  0  0
  -11.6943    3.4315    3.0411 N   0  0  0  1  0  0  0  0  0  0  0  0
  -11.1718    5.1173    0.3866 C   0  0  0  1  0  0  0  0  0  0  0  0
  -10.9268    6.6137    0.3773 C   0  0  0  1  0  0  0  0  0  0  0  0
  -12.1817    4.6325   -0.1222 O   0  0  0  1  0  0  0  0  0  0  0  0
  -12.6127    3.1174    4.1254 C   0  0  0  1  0  0  0  0  0  0  0  0
    1.3748    0.2220    2.6538 O   0  0  0  1  0  0  0  0  0  0  0  0
  -12.0724    1.4875    1.9619 O   0  0  0  1  0  0  0  0  0  0  0  0
  -10.2236    4.3748    0.9796 N   0  0  0  1  0  0  0  0  0  0  0  0
   -0.7517   -0.3508    6.9991 O   0  5  0  1  0  0  0  0  0  0  0  0
   -4.4705    1.0579   -0.2042 N   0  0  0  1  0  0  0  0  0  0  0  0
   -2.2683   -1.9668    7.5121 O   0  0  0  1  0  0  0  0  0  0  0  0
   -8.0495    2.3622    0.3219 C   0  0  0  1  0  0  0  0  0  0  0  0
   -9.0674    2.2265    1.4439 C   0  0  0  1  0  0  0  0  0  0  0  0
   -2.3234    0.7589    0.2867 C   0  0  0  1  0  0  0  0  0  0  0  0
   -6.6995    1.7379    0.6524 C   0  0  0  1  0  0  0  0  0  0  0  0
   -2.9534   -0.4942    0.2800 C   0  0  0  1  0  0  0  0  0  0  0  0
    2.4466   -0.4386    0.5644 C   0  0  0  1  0  0  0  0  0  0  0  0
  -10.3798    2.9311    1.0757 C   0  0  0  1  0  0  0  0  0  0  0  0
   -5.7677    1.6495   -0.5442 C   0  0  0  1  0  0  0  0  0  0  0  0
   -2.2938   -1.8242    0.5582 C   0  0  0  1  0  0  0  0  0  0  0  0
  -11.4501    2.5295    2.0862 C   0  0  0  1  0  0  0  0  0  0  0  0
    1.4007    0.4008    1.2500 C   0  0  0  1  0  0  0  0  0  0  0  0
    2.4301   -0.3040   -0.9488 C   0  0  0  1  0  0  0  0  0  0  0  0
   -0.9222    1.0592    0.5546 C   0  0  0  1  0  0  0  0  0  0  0  0
    3.3506   -1.2845   -1.6497 C   0  0  0  1  0  0  0  0  0  0  0  0
    0.0361    0.1756    0.6804 C   0  0  0  1  0  0  0  0  0  0  0  0
   -3.2891    1.7092   -0.0155 C   0  0  0  1  0  0  0  0  0  0  0  0
    3.2140   -1.2627   -3.1626 C   0  0  0  1  0  0  0  0  0  0  0  0
   -4.2855   -0.2951   -0.0267 C   0  0  0  1  0  0  0  0  0  0  0  0
   -3.1498   -2.7993    1.2929 C   0  0  0  1  0  0  0  0  0  0  0  0
   -2.8953   -3.4795    2.4133 C   0  0  0  1  0  0  0  0  0  0  0  0
   -1.7213   -3.0611    3.2575 C   0  0  0  1  0  0  0  0  0  0  0  0
    4.1606   -2.2209   -3.8669 C   0  0  0  1  0  0  0  0  0  0  0  0
   -2.1315   -2.4885    4.6080 C   0  0  0  1  0  0  0  0  0  0  0  0
   -0.9511   -2.1721    5.5119 C   0  0  0  1  0  0  0  0  0  0  0  0
   -1.4095   -1.5189    6.7702 C   0  0  0  1  0  0  0  0  0  0  0  0
  -11.2541    4.3066    3.0112 H   0  0  0  1  0  0  0  0  0  0  0  0
  -10.1136    6.8465    1.0326 H   0  0  0  1  0  0  0  0  0  0  0  0
  -11.8085    7.1212    0.7090 H   0  0  0  1  0  0  0  0  0  0  0  0
  -10.6855    6.9292   -0.6163 H   0  0  0  1  0  0  0  0  0  0  0  0
  -12.2774    3.5891    5.0254 H   0  0  0  1  0  0  0  0  0  0  0  0
  -12.6451    2.0576    4.2692 H   0  0  0  1  0  0  0  0  0  0  0  0
  -13.5907    3.4745    3.8789 H   0  0  0  1  0  0  0  0  0  0  0  0
    1.5130    1.0674    3.0872 H   0  0  0  1  0  0  0  0  0  0  0  0
   -9.4245    4.8058    1.3485 H   0  0  0  1  0  0  0  0  0  0  0  0
   -7.9020    3.4029    0.1217 H   0  0  0  1  0  0  0  0  0  0  0  0
   -8.4406    1.8824   -0.5508 H   0  0  0  1  0  0  0  0  0  0  0  0
   -8.6697    2.6681    2.3337 H   0  0  0  1  0  0  0  0  0  0  0  0
   -9.2628    1.1888    1.6167 H   0  0  0  1  0  0  0  0  0  0  0  0
   -6.8654    0.7494    1.0269 H   0  0  0  1  0  0  0  0  0  0  0  0
   -6.2270    2.3311    1.4072 H   0  0  0  1  0  0  0  0  0  0  0  0
    2.2764   -1.4647    0.8156 H   0  0  0  1  0  0  0  0  0  0  0  0
    3.4098   -0.1386    0.9211 H   0  0  0  1  0  0  0  0  0  0  0  0
  -10.6847    2.5603    0.1195 H   0  0  0  1  0  0  0  0  0  0  0  0
   -6.2324    1.0474   -1.2969 H   0  0  0  1  0  0  0  0  0  0  0  0
   -5.6052    2.6358   -0.9258 H   0  0  0  1  0  0  0  0  0  0  0  0
   -1.4152   -1.6454    1.1420 H   0  0  0  1  0  0  0  0  0  0  0  0
   -2.0175   -2.2620   -0.3782 H   0  0  0  1  0  0  0  0  0  0  0  0
    1.6495    1.4229    1.0545 H   0  0  0  1  0  0  0  0  0  0  0  0
    2.7346    0.6894   -1.2043 H   0  0  0  1  0  0  0  0  0  0  0  0
    1.4309   -0.4710   -1.2933 H   0  0  0  1  0  0  0  0  0  0  0  0
   -0.6613    2.0610    0.6544 H   0  0  0  1  0  0  0  0  0  0  0  0
    3.1232   -2.2708   -1.3027 H   0  0  0  1  0  0  0  0  0  0  0  0
    4.3614   -1.0411   -1.3968 H   0  0  0  1  0  0  0  0  0  0  0  0
   -0.1746   -0.7872    0.3482 H   0  0  0  1  0  0  0  0  0  0  0  0
    3.4172   -0.2704   -3.5073 H   0  0  0  1  0  0  0  0  0  0  0  0
    2.2095   -1.5303   -3.4164 H   0  0  0  1  0  0  0  0  0  0  0  0
   -4.0834   -2.9758    0.8699 H   0  0  0  1  0  0  0  0  0  0  0  0
   -3.4949   -4.2807    2.6965 H   0  0  0  1  0  0  0  0  0  0  0  0
   -1.1677   -2.3158    2.7256 H   0  0  0  1  0  0  0  0  0  0  0  0
   -1.1000   -3.9161    3.4246 H   0  0  0  1  0  0  0  0  0  0  0  0
    4.4663   -1.7986   -4.8013 H   0  0  0  1  0  0  0  0  0  0  0  0
    3.6612   -3.1508   -4.0424 H   0  0  0  1  0  0  0  0  0  0  0  0
    5.0208   -2.3879   -3.2528 H   0  0  0  1  0  0  0  0  0  0  0  0
   -2.7564   -3.2020    5.1033 H   0  0  0  1  0  0  0  0  0  0  0  0
   -2.6822   -1.5865    4.4409 H   0  0  0  1  0  0  0  0  0  0  0  0
   -0.2825   -1.5134    4.9982 H   0  0  0  1  0  0  0  0  0  0  0  0
   -0.4412   -3.0811    5.7541 H   0  0  0  1  0  0  0  0  0  0  0  0
  1 34  1  0  0  0  0
  2  4  1  0  0  0  0
  3  4  1  0  0  0  0
  4  5  1  0  0  0  0
  4 32  1  0  0  0  0
  6 10  1  0  0  0  0
  6 26  1  0  0  0  0
  6 42  1  0  0  0  0
  7  8  1  0  0  0  0
  7  9  2  0  0  0  0
  7 13  1  0  0  0  0
  8 43  1  0  0  0  0
  8 44  1  0  0  0  0
  8 45  1  0  0  0  0
 10 46  1  0  0  0  0
 10 47  1  0  0  0  0
 10 48  1  0  0  0  0
 11 27  1  0  0  0  0
 11 49  1  0  0  0  0
 12 26  2  0  0  0  0
 13 23  1  0  0  0  0
 13 50  1  0  0  0  0
 14 41  1  0  0  0  0
 15 24  1  0  0  0  0
 15 32  4  0  0  0  0
 15 34  4  0  0  0  0
 16 41  2  0  0  0  0
 17 18  1  0  0  0  0
 17 20  1  0  0  0  0
 17 51  1  0  0  0  0
 17 52  1  0  0  0  0
 18 23  1  0  0  0  0
 18 53  1  0  0  0  0
 18 54  1  0  0  0  0
 19 21  4  0  0  0  0
 19 29  1  0  0  0  0
 19 32  4  0  0  0  0
 20 24  1  0  0  0  0
 20 55  1  0  0  0  0
 20 56  1  0  0  0  0
 21 25  1  0  0  0  0
 21 34  4  0  0  0  0
 22 27  1  0  0  0  0
 22 28  1  0  0  0  0
 22 57  1  0  0  0  0
 22 58  1  0  0  0  0
 23 26  1  0  0  0  0
 23 59  1  0  0  0  0
 24 60  1  0  0  0  0
 24 61  1  0  0  0  0
 25 35  1  0  0  0  0
 25 62  1  0  0  0  0
 25 63  1  0  0  0  0
 27 31  1  0  0  0  0
 27 64  1  0  0  0  0
 28 30  1  0  0  0  0
 28 65  1  0  0  0  0
 28 66  1  0  0  0  0
 29 31  2  0  0  0  0
 29 67  1  0  0  0  0
 30 33  1  0  0  0  0
 30 68  1  0  0  0  0
 30 69  1  0  0  0  0
 31 70  1  0  0  0  0
 33 38  1  0  0  0  0
 33 71  1  0  0  0  0
 33 72  1  0  0  0  0
 35 36  2  0  0  0  0
 35 73  1  0  0  0  0
 36 37  1  0  0  0  0
 36 74  1  0  0  0  0
 37 39  1  0  0  0  0
 37 75  1  0  0  0  0
 37 76  1  0  0  0  0
 38 77  1  0  0  0  0
 38 78  1  0  0  0  0
 38 79  1  0  0  0  0
 39 40  1  0  0  0  0
 39 80  1  0  0  0  0
 39 81  1  0  0  0  0
 40 41  1  0  0  0  0
 40 82  1  0  0  0  0
 40 83  1  0  0  0  0
M  END
> <ConfClashScore>
0 

> <ConfOneFourInteractionScore>
-0.987923 

> <ConfScore>
-0.223161 

> <ConfScorePBest>
0.00769143 

> <ConfTolerance>
1.62328 

$$$$
9548876
  PyMOL2.2          3D                             0

 83 83  0  0  0  0  0  0  0  0999 V2000
   -4.9972   -1.0476   -0.1398 H   0  0  0  1  0  0  0  0  0  0  0  0
   -4.1382    3.6069   -0.3532 H   0  0  0  1  0  0  0  0  0  0  0  0
   -2.5074    3.4250   -0.9530 H   0  0  0  1  0  0  0  0  0  0  0  0
   -3.1750    3.1869   -0.1515 C   0  0  0  1  0  0  0  0  0  0  0  0
   -2.7941    3.5916    0.7628 H   0  0  0  1  0  0  0  0  0  0  0  0
   -9.8318    4.4350   -5.7089 N   0  0  0  1  0  0  0  0  0  0  0  0
  -11.3536    1.8503   -3.3576 C   0  0  0  1  0  0  0  0  0  0  0  0
  -12.0248    0.5568   -2.9386 C   0  0  0  1  0  0  0  0  0  0  0  0
  -11.9817    2.9048   -3.4424 O   0  0  0  1  0  0  0  0  0  0  0  0
   -9.9184    4.9787   -7.0560 C   0  0  0  1  0  0  0  0  0  0  0  0
    1.6986   -0.5894    2.2791 O   0  0  0  1  0  0  0  0  0  0  0  0
   -9.1493    2.3810   -6.3429 O   0  0  0  1  0  0  0  0  0  0  0  0
  -10.0429    1.7188   -3.6163 N   0  0  0  1  0  0  0  0  0  0  0  0
   -4.2467    0.1474    6.3427 O   0  5  0  1  0  0  0  0  0  0  0  0
   -4.4669    1.0458   -0.2343 N   0  0  0  1  0  0  0  0  0  0  0  0
   -3.2558   -1.6776    7.3072 O   0  0  0  1  0  0  0  0  0  0  0  0
   -7.4335    2.3179   -2.2563 C   0  0  0  1  0  0  0  0  0  0  0  0
   -7.7307    2.5556   -3.7161 C   0  0  0  1  0  0  0  0  0  0  0  0
   -2.3266    0.7649    0.2953 C   0  0  0  1  0  0  0  0  0  0  0  0
   -6.0201    1.8572   -1.9433 C   0  0  0  1  0  0  0  0  0  0  0  0
   -2.9470   -0.4929    0.2825 C   0  0  0  1  0  0  0  0  0  0  0  0
    2.4560    0.3226    0.2079 C   0  0  0  1  0  0  0  0  0  0  0  0
   -9.2081    2.8491   -3.9951 C   0  0  0  1  0  0  0  0  0  0  0  0
   -5.7472    1.7193   -0.4544 C   0  0  0  1  0  0  0  0  0  0  0  0
   -2.2824   -1.8168    0.5775 C   0  0  0  1  0  0  0  0  0  0  0  0
   -9.4186    3.1875   -5.4680 C   0  0  0  1  0  0  0  0  0  0  0  0
    1.3613    0.3673    1.2792 C   0  0  0  1  0  0  0  0  0  0  0  0
    2.1749    1.2295   -0.9790 C   0  0  0  1  0  0  0  0  0  0  0  0
   -0.9231    1.0223    0.5944 C   0  0  0  1  0  0  0  0  0  0  0  0
    3.3121    1.2894   -1.9685 C   0  0  0  1  0  0  0  0  0  0  0  0
    0.0246    0.1120    0.6638 C   0  0  0  1  0  0  0  0  0  0  0  0
   -3.2939    1.7068   -0.0276 C   0  0  0  1  0  0  0  0  0  0  0  0
    3.1472    2.2940   -3.0926 C   0  0  0  1  0  0  0  0  0  0  0  0
   -4.2749   -0.3050   -0.0482 C   0  0  0  1  0  0  0  0  0  0  0  0
   -3.2118   -2.6806    1.3697 C   0  0  0  1  0  0  0  0  0  0  0  0
   -2.9618   -3.2667    2.5162 C   0  0  0  1  0  0  0  0  0  0  0  0
   -1.8035   -2.9343    3.4183 C   0  0  0  1  0  0  0  0  0  0  0  0
    4.3261    2.4094   -4.0451 C   0  0  0  1  0  0  0  0  0  0  0  0
   -2.2305   -2.6190    4.8459 C   0  0  0  1  0  0  0  0  0  0  0  0
   -3.2248   -1.4691    4.9387 C   0  0  0  1  0  0  0  0  0  0  0  0
   -3.5663   -1.0300    6.3210 C   0  0  0  1  0  0  0  0  0  0  0  0
  -10.0853    5.0037   -4.9521 H   0  0  0  1  0  0  0  0  0  0  0  0
  -13.0823    0.7072   -2.8759 H   0  0  0  1  0  0  0  0  0  0  0  0
  -11.6505    0.2544   -1.9829 H   0  0  0  1  0  0  0  0  0  0  0  0
  -11.8152   -0.2039   -3.6613 H   0  0  0  1  0  0  0  0  0  0  0  0
   -9.0919    5.6356   -7.2299 H   0  0  0  1  0  0  0  0  0  0  0  0
  -10.8341    5.5220   -7.1629 H   0  0  0  1  0  0  0  0  0  0  0  0
   -9.8930    4.1784   -7.7657 H   0  0  0  1  0  0  0  0  0  0  0  0
    1.4841   -0.2364    3.1457 H   0  0  0  1  0  0  0  0  0  0  0  0
   -9.6340    0.8309   -3.5477 H   0  0  0  1  0  0  0  0  0  0  0  0
   -8.1105    1.5700   -1.8997 H   0  0  0  1  0  0  0  0  0  0  0  0
   -7.6052    3.2345   -1.7316 H   0  0  0  1  0  0  0  0  0  0  0  0
   -7.4486    1.6823   -4.2663 H   0  0  0  1  0  0  0  0  0  0  0  0
   -7.1502    3.3905   -4.0490 H   0  0  0  1  0  0  0  0  0  0  0  0
   -5.3332    2.5699   -2.3495 H   0  0  0  1  0  0  0  0  0  0  0  0
   -5.8631    0.9056   -2.4066 H   0  0  0  1  0  0  0  0  0  0  0  0
    2.5427   -0.6832   -0.1467 H   0  0  0  1  0  0  0  0  0  0  0  0
    3.3802    0.6248    0.6544 H   0  0  0  1  0  0  0  0  0  0  0  0
   -9.4916    3.7018   -3.4144 H   0  0  0  1  0  0  0  0  0  0  0  0
   -5.7155    2.6920   -0.0096 H   0  0  0  1  0  0  0  0  0  0  0  0
   -6.5299    1.1457   -0.0036 H   0  0  0  1  0  0  0  0  0  0  0  0
   -1.3875   -1.6484    1.1393 H   0  0  0  1  0  0  0  0  0  0  0  0
   -2.0398   -2.3059   -0.3428 H   0  0  0  1  0  0  0  0  0  0  0  0
    1.3534    1.3476    1.7080 H   0  0  0  1  0  0  0  0  0  0  0  0
    1.9903    2.2183   -0.6142 H   0  0  0  1  0  0  0  0  0  0  0  0
    1.3042    0.8669   -1.4844 H   0  0  0  1  0  0  0  0  0  0  0  0
   -0.6472    2.0100    0.7677 H   0  0  0  1  0  0  0  0  0  0  0  0
    3.4190    0.3191   -2.4068 H   0  0  0  1  0  0  0  0  0  0  0  0
    4.2033    1.5389   -1.4316 H   0  0  0  1  0  0  0  0  0  0  0  0
   -0.1667   -0.8317    0.2708 H   0  0  0  1  0  0  0  0  0  0  0  0
    2.9830    3.2558   -2.6535 H   0  0  0  1  0  0  0  0  0  0  0  0
    2.2882    2.0109   -3.6642 H   0  0  0  1  0  0  0  0  0  0  0  0
   -4.1589   -2.8329    0.9680 H   0  0  0  1  0  0  0  0  0  0  0  0
   -3.6123   -4.0171    2.8249 H   0  0  0  1  0  0  0  0  0  0  0  0
   -1.2945   -2.0820    3.0190 H   0  0  0  1  0  0  0  0  0  0  0  0
   -1.1369   -3.7711    3.4391 H   0  0  0  1  0  0  0  0  0  0  0  0
    4.6287    3.4333   -4.1166 H   0  0  0  1  0  0  0  0  0  0  0  0
    4.0387    2.0543   -5.0127 H   0  0  0  1  0  0  0  0  0  0  0  0
    5.1409    1.8219   -3.6766 H   0  0  0  1  0  0  0  0  0  0  0  0
   -1.3595   -2.3609    5.4114 H   0  0  0  1  0  0  0  0  0  0  0  0
   -2.6827   -3.4932    5.2657 H   0  0  0  1  0  0  0  0  0  0  0  0
   -4.1297   -1.7754    4.4567 H   0  0  0  1  0  0  0  0  0  0  0  0
   -2.8095   -0.6309    4.4193 H   0  0  0  1  0  0  0  0  0  0  0  0
  1 34  1  0  0  0  0
  2  4  1  0  0  0  0
  3  4  1  0  0  0  0
  4  5  1  0  0  0  0
  4 32  1  0  0  0  0
  6 10  1  0  0  0  0
  6 26  1  0  0  0  0
  6 42  1  0  0  0  0
  7  8  1  0  0  0  0
  7  9  2  0  0  0  0
  7 13  1  0  0  0  0
  8 43  1  0  0  0  0
  8 44  1  0  0  0  0
  8 45  1  0  0  0  0
 10 46  1  0  0  0  0
 10 47  1  0  0  0  0
 10 48  1  0  0  0  0
 11 27  1  0  0  0  0
 11 49  1  0  0  0  0
 12 26  2  0  0  0  0
 13 23  1  0  0  0  0
 13 50  1  0  0  0  0
 14 41  1  0  0  0  0
 15 24  1  0  0  0  0
 15 32  4  0  0  0  0
 15 34  4  0  0  0  0
 16 41  2  0  0  0  0
 17 18  1  0  0  0  0
 17 20  1  0  0  0  0
 17 51  1  0  0  0  0
 17 52  1  0  0  0  0
 18 23  1  0  0  0  0
 18 53  1  0  0  0  0
 18 54  1  0  0  0  0
 19 21  4  0  0  0  0
 19 29  1  0  0  0  0
 19 32  4  0  0  0  0
 20 24  1  0  0  0  0
 20 55  1  0  0  0  0
 20 56  1  0  0  0  0
 21 25  1  0  0  0  0
 21 34  4  0  0  0  0
 22 27  1  0  0  0  0
 22 28  1  0  0  0  0
 22 57  1  0  0  0  0
 22 58  1  0  0  0  0
 23 26  1  0  0  0  0
 23 59  1  0  0  0  0
 24 60  1  0  0  0  0
 24 61  1  0  0  0  0
 25 35  1  0  0  0  0
 25 62  1  0  0  0  0
 25 63  1  0  0  0  0
 27 31  1  0  0  0  0
 27 64  1  0  0  0  0
 28 30  1  0  0  0  0
 28 65  1  0  0  0  0
 28 66  1  0  0  0  0
 29 31  2  0  0  0  0
 29 67  1  0  0  0  0
 30 33  1  0  0  0  0
 30 68  1  0  0  0  0
 30 69  1  0  0  0  0
 31 70  1  0  0  0  0
 33 38  1  0  0  0  0
 33 71  1  0  0  0  0
 33 72  1  0  0  0  0
 35 36  2  0  0  0  0
 35 73  1  0  0  0  0
 36 37  1  0  0  0  0
 36 74  1  0  0  0  0
 37 39  1  0  0  0  0
 37 75  1  0  0  0  0
 37 76  1  0  0  0  0
 38 77  1  0  0  0  0
 38 78  1  0  0  0  0
 38 79  1  0  0  0  0
 39 40  1  0  0  0  0
 39 80  1  0  0  0  0
 39 81  1  0  0  0  0
 40 41  1  0  0  0  0
 40 82  1  0  0  0  0
 40 83  1  0  0  0  0
M  END
> <ConfClashScore>
0 

> <ConfOneFourInteractionScore>
-0.991267 

> <ConfScore>
-0.195204 

> <ConfScorePBest>
0.00766295 

> <ConfTolerance>
1.65032 

$$$$
9548876
  PyMOL2.2          3D                             0

 83 83  0  0  0  0  0  0  0  0999 V2000
   -5.0085   -1.0381   -0.1068 H   0  0  0  1  0  0  0  0  0  0  0  0
   -3.5646    3.5045   -1.0822 H   0  0  0  1  0  0  0  0  0  0  0  0
   -2.1411    3.4695   -0.0697 H   0  0  0  1  0  0  0  0  0  0  0  0
   -3.1717    3.1900   -0.1379 C   0  0  0  1  0  0  0  0  0  0  0  0
   -3.7219    3.6588    0.6510 H   0  0  0  1  0  0  0  0  0  0  0  0
  -11.5881    3.6734    2.9949 N   0  0  0  1  0  0  0  0  0  0  0  0
  -11.5508    4.9002    0.5018 C   0  0  0  1  0  0  0  0  0  0  0  0
  -11.3502    6.3618    0.1513 C   0  0  0  1  0  0  0  0  0  0  0  0
  -12.6679    4.4307    0.6435 O   0  0  0  1  0  0  0  0  0  0  0  0
  -12.4523    3.6636    4.1658 C   0  0  0  1  0  0  0  0  0  0  0  0
    1.7835    1.8903    0.7677 O   0  0  0  1  0  0  0  0  0  0  0  0
  -12.0320    1.5514    2.3728 O   0  0  0  1  0  0  0  0  0  0  0  0
  -10.4299    4.1750    0.6421 N   0  0  0  1  0  0  0  0  0  0  0  0
   -3.7508   -9.1156    3.2227 O   0  5  0  1  0  0  0  0  0  0  0  0
   -4.4725    1.0538   -0.2042 N   0  0  0  1  0  0  0  0  0  0  0  0
   -4.5975   -8.8521    1.1279 O   0  0  0  1  0  0  0  0  0  0  0  0
   -8.1008    2.2104    0.2540 C   0  0  0  1  0  0  0  0  0  0  0  0
   -9.0494    2.2997    1.4382 C   0  0  0  1  0  0  0  0  0  0  0  0
   -2.3241    0.7636    0.2861 C   0  0  0  1  0  0  0  0  0  0  0  0
   -6.7096    1.7282    0.6313 C   0  0  0  1  0  0  0  0  0  0  0  0
   -2.9491   -0.4919    0.2804 C   0  0  0  1  0  0  0  0  0  0  0  0
    2.3648   -0.4113    0.8438 C   0  0  0  1  0  0  0  0  0  0  0  0
  -10.4531    2.7803    1.0571 C   0  0  0  1  0  0  0  0  0  0  0  0
   -5.7460    1.6895   -0.5436 C   0  0  0  1  0  0  0  0  0  0  0  0
   -2.2841   -1.8191    0.5593 C   0  0  0  1  0  0  0  0  0  0  0  0
  -11.4184    2.5954    2.2241 C   0  0  0  1  0  0  0  0  0  0  0  0
    1.5345    0.6589    0.1274 C   0  0  0  1  0  0  0  0  0  0  0  0
    2.0725   -0.5043    2.3326 C   0  0  0  1  0  0  0  0  0  0  0  0
   -0.9145    1.0152    0.5607 C   0  0  0  1  0  0  0  0  0  0  0  0
    2.8928   -1.5690    3.0424 C   0  0  0  1  0  0  0  0  0  0  0  0
    0.0865    0.2843    0.1381 C   0  0  0  1  0  0  0  0  0  0  0  0
   -3.2936    1.7099   -0.0165 C   0  0  0  1  0  0  0  0  0  0  0  0
    2.6322   -1.6326    4.5385 C   0  0  0  1  0  0  0  0  0  0  0  0
   -4.2820   -0.2983   -0.0258 C   0  0  0  1  0  0  0  0  0  0  0  0
   -2.5277   -2.8675   -0.4794 C   0  0  0  1  0  0  0  0  0  0  0  0
   -2.8826   -4.1116   -0.2768 C   0  0  0  1  0  0  0  0  0  0  0  0
   -3.0658   -4.7979    1.0503 C   0  0  0  1  0  0  0  0  0  0  0  0
    3.4640   -2.6867    5.2508 C   0  0  0  1  0  0  0  0  0  0  0  0
   -3.4833   -6.2533    0.9154 C   0  0  0  1  0  0  0  0  0  0  0  0
   -3.6080   -6.9706    2.2496 C   0  0  0  1  0  0  0  0  0  0  0  0
   -4.0443   -8.3885    2.1115 C   0  0  0  1  0  0  0  0  0  0  0  0
  -11.1142    4.4994    2.7638 H   0  0  0  1  0  0  0  0  0  0  0  0
  -10.8267    6.4374   -0.7789 H   0  0  0  1  0  0  0  0  0  0  0  0
  -10.7797    6.8379    0.9211 H   0  0  0  1  0  0  0  0  0  0  0  0
  -12.3028    6.8413    0.0641 H   0  0  0  1  0  0  0  0  0  0  0  0
  -13.3534    4.1982    3.9492 H   0  0  0  1  0  0  0  0  0  0  0  0
  -11.9480    4.1322    4.9849 H   0  0  0  1  0  0  0  0  0  0  0  0
  -12.6908    2.6530    4.4243 H   0  0  0  1  0  0  0  0  0  0  0  0
    1.9150    1.7422    1.7070 H   0  0  0  1  0  0  0  0  0  0  0  0
   -9.5658    4.5995    0.4586 H   0  0  0  1  0  0  0  0  0  0  0  0
   -8.0153    3.1820   -0.1862 H   0  0  0  1  0  0  0  0  0  0  0  0
   -8.5136    1.5296   -0.4608 H   0  0  0  1  0  0  0  0  0  0  0  0
   -8.6386    2.9837    2.1512 H   0  0  0  1  0  0  0  0  0  0  0  0
   -9.1318    1.3290    1.8809 H   0  0  0  1  0  0  0  0  0  0  0  0
   -6.7909    0.7410    1.0360 H   0  0  0  1  0  0  0  0  0  0  0  0
   -6.3121    2.3873    1.3745 H   0  0  0  1  0  0  0  0  0  0  0  0
    3.4013   -0.1789    0.7155 H   0  0  0  1  0  0  0  0  0  0  0  0
    2.1535   -1.3602    0.3968 H   0  0  0  1  0  0  0  0  0  0  0  0
  -10.7986    2.1798    0.2416 H   0  0  0  1  0  0  0  0  0  0  0  0
   -6.2008    1.1413   -1.3421 H   0  0  0  1  0  0  0  0  0  0  0  0
   -5.5541    2.6926   -0.8628 H   0  0  0  1  0  0  0  0  0  0  0  0
   -2.6502   -2.1856    1.4956 H   0  0  0  1  0  0  0  0  0  0  0  0
   -1.2288   -1.6559    0.6276 H   0  0  0  1  0  0  0  0  0  0  0  0
    1.8615    0.7078   -0.8902 H   0  0  0  1  0  0  0  0  0  0  0  0
    1.0353   -0.7334    2.4610 H   0  0  0  1  0  0  0  0  0  0  0  0
    2.2870    0.4436    2.7802 H   0  0  0  1  0  0  0  0  0  0  0  0
   -0.6843    1.8462    1.1421 H   0  0  0  1  0  0  0  0  0  0  0  0
    3.9302   -1.3575    2.8874 H   0  0  0  1  0  0  0  0  0  0  0  0
    2.6548   -2.5210    2.6158 H   0  0  0  1  0  0  0  0  0  0  0  0
   -0.1511   -0.6588   -0.2301 H   0  0  0  1  0  0  0  0  0  0  0  0
    1.5972   -1.8555    4.6934 H   0  0  0  1  0  0  0  0  0  0  0  0
    2.8593   -0.6772    4.9634 H   0  0  0  1  0  0  0  0  0  0  0  0
   -2.4015   -2.5768   -1.4700 H   0  0  0  1  0  0  0  0  0  0  0  0
   -3.0568   -4.6879   -1.1248 H   0  0  0  1  0  0  0  0  0  0  0  0
   -3.8203   -4.2770    1.6019 H   0  0  0  1  0  0  0  0  0  0  0  0
   -2.1401   -4.7574    1.5854 H   0  0  0  1  0  0  0  0  0  0  0  0
    3.2717   -3.6461    4.8178 H   0  0  0  1  0  0  0  0  0  0  0  0
    3.2033   -2.7053    6.2884 H   0  0  0  1  0  0  0  0  0  0  0  0
    4.5026   -2.4509    5.1476 H   0  0  0  1  0  0  0  0  0  0  0  0
   -2.7517   -6.7625    0.3234 H   0  0  0  1  0  0  0  0  0  0  0  0
   -4.4314   -6.2897    0.4207 H   0  0  0  1  0  0  0  0  0  0  0  0
   -4.3249   -6.4506    2.8502 H   0  0  0  1  0  0  0  0  0  0  0  0
   -2.6550   -6.9533    2.7359 H   0  0  0  1  0  0  0  0  0  0  0  0
  1 34  1  0  0  0  0
  2  4  1  0  0  0  0
  3  4  1  0  0  0  0
  4  5  1  0  0  0  0
  4 32  1  0  0  0  0
  6 10  1  0  0  0  0
  6 26  1  0  0  0  0
  6 42  1  0  0  0  0
  7  8  1  0  0  0  0
  7  9  2  0  0  0  0
  7 13  1  0  0  0  0
  8 43  1  0  0  0  0
  8 44  1  0  0  0  0
  8 45  1  0  0  0  0
 10 46  1  0  0  0  0
 10 47  1  0  0  0  0
 10 48  1  0  0  0  0
 11 27  1  0  0  0  0
 11 49  1  0  0  0  0
 12 26  2  0  0  0  0
 13 23  1  0  0  0  0
 13 50  1  0  0  0  0
 14 41  1  0  0  0  0
 15 24  1  0  0  0  0
 15 32  4  0  0  0  0
 15 34  4  0  0  0  0
 16 41  2  0  0  0  0
 17 18  1  0  0  0  0
 17 20  1  0  0  0  0
 17 51  1  0  0  0  0
 17 52  1  0  0  0  0
 18 23  1  0  0  0  0
 18 53  1  0  0  0  0
 18 54  1  0  0  0  0
 19 21  4  0  0  0  0
 19 29  1  0  0  0  0
 19 32  4  0  0  0  0
 20 24  1  0  0  0  0
 20 55  1  0  0  0  0
 20 56  1  0  0  0  0
 21 25  1  0  0  0  0
 21 34  4  0  0  0  0
 22 27  1  0  0  0  0
 22 28  1  0  0  0  0
 22 57  1  0  0  0  0
 22 58  1  0  0  0  0
 23 26  1  0  0  0  0
 23 59  1  0  0  0  0
 24 60  1  0  0  0  0
 24 61  1  0  0  0  0
 25 35  1  0  0  0  0
 25 62  1  0  0  0  0
 25 63  1  0  0  0  0
 27 31  1  0  0  0  0
 27 64  1  0  0  0  0
 28 30  1  0  0  0  0
 28 65  1  0  0  0  0
 28 66  1  0  0  0  0
 29 31  2  0  0  0  0
 29 67  1  0  0  0  0
 30 33  1  0  0  0  0
 30 68  1  0  0  0  0
 30 69  1  0  0  0  0
 31 70  1  0  0  0  0
 33 38  1  0  0  0  0
 33 71  1  0  0  0  0
 33 72  1  0  0  0  0
 35 36  2  0  0  0  0
 35 73  1  0  0  0  0
 36 37  1  0  0  0  0
 36 74  1  0  0  0  0
 37 39  1  0  0  0  0
 37 75  1  0  0  0  0
 37 76  1  0  0  0  0
 38 77  1  0  0  0  0
 38 78  1  0  0  0  0
 38 79  1  0  0  0  0
 39 40  1  0  0  0  0
 39 80  1  0  0  0  0
 39 81  1  0  0  0  0
 40 41  1  0  0  0  0
 40 82  1  0  0  0  0
 40 83  1  0  0  0  0
M  END
> <ConfClashScore>
0 

> <ConfOneFourInteractionScore>
-0.986959 

> <ConfScore>
-0.194412 

> <ConfScorePBest>
0.00763447 

> <ConfTolerance>
1.6285 

$$$$
9548876
  PyMOL2.2          3D                             0

 83 83  0  0  0  0  0  0  0  0999 V2000
   -5.0121   -1.0272   -0.1572 H   0  0  0  1  0  0  0  0  0  0  0  0
   -2.4738    3.4393   -0.8997 H   0  0  0  1  0  0  0  0  0  0  0  0
   -2.8533    3.5925    0.7989 H   0  0  0  1  0  0  0  0  0  0  0  0
   -3.1764    3.1817   -0.1348 C   0  0  0  1  0  0  0  0  0  0  0  0
   -4.1379    3.5783   -0.3859 H   0  0  0  1  0  0  0  0  0  0  0  0
  -11.1856    3.5366    0.4276 N   0  0  0  1  0  0  0  0  0  0  0  0
  -11.2810    5.1497    3.2956 C   0  0  0  1  0  0  0  0  0  0  0  0
  -12.1166    4.8660    4.5417 C   0  0  0  1  0  0  0  0  0  0  0  0
  -11.4871    6.1491    2.6083 O   0  0  0  1  0  0  0  0  0  0  0  0
  -11.9388    3.4264   -0.8128 C   0  0  0  1  0  0  0  0  0  0  0  0
    2.3266   -0.3394    0.9910 O   0  0  0  1  0  0  0  0  0  0  0  0
   -9.7529    5.0834   -0.3560 O   0  0  0  1  0  0  0  0  0  0  0  0
  -10.3893    4.2015    2.9823 N   0  0  0  1  0  0  0  0  0  0  0  0
   -6.3874   -7.4464   -2.6765 O   0  5  0  1  0  0  0  0  0  0  0  0
   -4.4505    1.0590   -0.2254 N   0  0  0  1  0  0  0  0  0  0  0  0
   -5.3000   -6.1191   -4.1847 O   0  0  0  1  0  0  0  0  0  0  0  0
   -7.6753    2.9532    0.6544 C   0  0  0  1  0  0  0  0  0  0  0  0
   -8.3832    3.2416    1.9550 C   0  0  0  1  0  0  0  0  0  0  0  0
   -2.3098    0.7375    0.2790 C   0  0  0  1  0  0  0  0  0  0  0  0
   -6.4577    2.0776    0.8177 C   0  0  0  1  0  0  0  0  0  0  0  0
   -2.9496   -0.5103    0.2534 C   0  0  0  1  0  0  0  0  0  0  0  0
    1.7863    2.0014    1.2233 C   0  0  0  1  0  0  0  0  0  0  0  0
   -9.4257    4.3663    1.9043 C   0  0  0  1  0  0  0  0  0  0  0  0
   -5.7355    1.7153   -0.4688 C   0  0  0  1  0  0  0  0  0  0  0  0
   -2.3131   -1.8355    0.6190 C   0  0  0  1  0  0  0  0  0  0  0  0
  -10.1213    4.3352    0.5478 C   0  0  0  1  0  0  0  0  0  0  0  0
    1.3487    0.5615    1.5075 C   0  0  0  1  0  0  0  0  0  0  0  0
    1.7616    2.3465   -0.2045 C   0  0  0  1  0  0  0  0  0  0  0  0
   -0.9185    1.0750    0.5542 C   0  0  0  1  0  0  0  0  0  0  0  0
    2.2658    3.7014   -0.6627 C   0  0  0  1  0  0  0  0  0  0  0  0
    0.0117    0.2308    0.9240 C   0  0  0  1  0  0  0  0  0  0  0  0
   -3.2655    1.6988   -0.0203 C   0  0  0  1  0  0  0  0  0  0  0  0
    2.1624    3.9063   -2.1652 C   0  0  0  1  0  0  0  0  0  0  0  0
   -4.2776   -0.2972   -0.0615 C   0  0  0  1  0  0  0  0  0  0  0  0
   -1.5445   -2.4797   -0.4844 C   0  0  0  1  0  0  0  0  0  0  0  0
   -1.8247   -3.5359   -1.1768 C   0  0  0  1  0  0  0  0  0  0  0  0
   -2.8643   -4.5963   -0.9304 C   0  0  0  1  0  0  0  0  0  0  0  0
    2.4076    5.3433   -2.5957 C   0  0  0  1  0  0  0  0  0  0  0  0
   -3.6258   -4.9870   -2.1866 C   0  0  0  1  0  0  0  0  0  0  0  0
   -4.6153   -6.1025   -1.8918 C   0  0  0  1  0  0  0  0  0  0  0  0
   -5.4303   -6.5568   -3.0534 C   0  0  0  1  0  0  0  0  0  0  0  0
  -11.4690    3.0065    1.2016 H   0  0  0  1  0  0  0  0  0  0  0  0
  -11.4680    4.6617    5.3679 H   0  0  0  1  0  0  0  0  0  0  0  0
  -12.7451    4.0184    4.3640 H   0  0  0  1  0  0  0  0  0  0  0  0
  -12.7223    5.7189    4.7666 H   0  0  0  1  0  0  0  0  0  0  0  0
  -12.9551    3.1744   -0.5924 H   0  0  0  1  0  0  0  0  0  0  0  0
  -11.5070    2.6627   -1.4253 H   0  0  0  1  0  0  0  0  0  0  0  0
  -11.9081    4.3612   -1.3326 H   0  0  0  1  0  0  0  0  0  0  0  0
    2.3573   -0.2650    0.0344 H   0  0  0  1  0  0  0  0  0  0  0  0
  -10.3854    3.3675    3.4968 H   0  0  0  1  0  0  0  0  0  0  0  0
   -7.3693    3.8825    0.2214 H   0  0  0  1  0  0  0  0  0  0  0  0
   -8.3612    2.4613   -0.0033 H   0  0  0  1  0  0  0  0  0  0  0  0
   -7.6437    3.5102    2.6802 H   0  0  0  1  0  0  0  0  0  0  0  0
   -8.8795    2.3461    2.2658 H   0  0  0  1  0  0  0  0  0  0  0  0
   -6.7666    1.1682    1.2895 H   0  0  0  1  0  0  0  0  0  0  0  0
   -5.7650    2.5912    1.4511 H   0  0  0  1  0  0  0  0  0  0  0  0
    2.7845    2.1305    1.5863 H   0  0  0  1  0  0  0  0  0  0  0  0
    1.1281    2.6650    1.7441 H   0  0  0  1  0  0  0  0  0  0  0  0
   -8.9221    5.3043    2.0112 H   0  0  0  1  0  0  0  0  0  0  0  0
   -6.3564    1.0537   -1.0360 H   0  0  0  1  0  0  0  0  0  0  0  0
   -5.5626    2.6106   -1.0287 H   0  0  0  1  0  0  0  0  0  0  0  0
   -3.0898   -2.5068    0.9209 H   0  0  0  1  0  0  0  0  0  0  0  0
   -1.6454   -1.6701    1.4386 H   0  0  0  1  0  0  0  0  0  0  0  0
    1.2858    0.4416    2.5689 H   0  0  0  1  0  0  0  0  0  0  0  0
    0.7430    2.2714   -0.5234 H   0  0  0  1  0  0  0  0  0  0  0  0
    2.3497    1.6100   -0.7111 H   0  0  0  1  0  0  0  0  0  0  0  0
   -0.6410    2.0716    0.4477 H   0  0  0  1  0  0  0  0  0  0  0  0
    3.2928    3.7954   -0.3773 H   0  0  0  1  0  0  0  0  0  0  0  0
    1.6891    4.4602   -0.1763 H   0  0  0  1  0  0  0  0  0  0  0  0
   -0.2023   -0.7792    0.7984 H   0  0  0  1  0  0  0  0  0  0  0  0
    1.1803    3.6208   -2.4797 H   0  0  0  1  0  0  0  0  0  0  0  0
    2.8867    3.2805   -2.6436 H   0  0  0  1  0  0  0  0  0  0  0  0
   -0.6506   -2.0105   -0.7344 H   0  0  0  1  0  0  0  0  0  0  0  0
   -1.2461   -3.6726   -2.0301 H   0  0  0  1  0  0  0  0  0  0  0  0
   -3.5634   -4.2269   -0.2094 H   0  0  0  1  0  0  0  0  0  0  0  0
   -2.3776   -5.4668   -0.5426 H   0  0  0  1  0  0  0  0  0  0  0  0
    1.6473    5.9740   -2.1847 H   0  0  0  1  0  0  0  0  0  0  0  0
    2.3826    5.4046   -3.6637 H   0  0  0  1  0  0  0  0  0  0  0  0
    3.3655    5.6628   -2.2420 H   0  0  0  1  0  0  0  0  0  0  0  0
   -2.9309   -5.3213   -2.9283 H   0  0  0  1  0  0  0  0  0  0  0  0
   -4.1576   -4.1343   -2.5539 H   0  0  0  1  0  0  0  0  0  0  0  0
   -5.2859   -5.7568   -1.1331 H   0  0  0  1  0  0  0  0  0  0  0  0
   -4.0648   -6.9438   -1.5256 H   0  0  0  1  0  0  0  0  0  0  0  0
  1 34  1  0  0  0  0
  2  4  1  0  0  0  0
  3  4  1  0  0  0  0
  4  5  1  0  0  0  0
  4 32  1  0  0  0  0
  6 10  1  0  0  0  0
  6 26  1  0  0  0  0
  6 42  1  0  0  0  0
  7  8  1  0  0  0  0
  7  9  2  0  0  0  0
  7 13  1  0  0  0  0
  8 43  1  0  0  0  0
  8 44  1  0  0  0  0
  8 45  1  0  0  0  0
 10 46  1  0  0  0  0
 10 47  1  0  0  0  0
 10 48  1  0  0  0  0
 11 27  1  0  0  0  0
 11 49  1  0  0  0  0
 12 26  2  0  0  0  0
 13 23  1  0  0  0  0
 13 50  1  0  0  0  0
 14 41  1  0  0  0  0
 15 24  1  0  0  0  0
 15 32  4  0  0  0  0
 15 34  4  0  0  0  0
 16 41  2  0  0  0  0
 17 18  1  0  0  0  0
 17 20  1  0  0  0  0
 17 51  1  0  0  0  0
 17 52  1  0  0  0  0
 18 23  1  0  0  0  0
 18 53  1  0  0  0  0
 18 54  1  0  0  0  0
 19 21  4  0  0  0  0
 19 29  1  0  0  0  0
 19 32  4  0  0  0  0
 20 24  1  0  0  0  0
 20 55  1  0  0  0  0
 20 56  1  0  0  0  0
 21 25  1  0  0  0  0
 21 34  4  0  0  0  0
 22 27  1  0  0  0  0
 22 28  1  0  0  0  0
 22 57  1  0  0  0  0
 22 58  1  0  0  0  0
 23 26  1  0  0  0  0
 23 59  1  0  0  0  0
 24 60  1  0  0  0  0
 24 61  1  0  0  0  0
 25 35  1  0  0  0  0
 25 62  1  0  0  0  0
 25 63  1  0  0  0  0
 27 31  1  0  0  0  0
 27 64  1  0  0  0  0
 28 30  1  0  0  0  0
 28 65  1  0  0  0  0
 28 66  1  0  0  0  0
 29 31  2  0  0  0  0
 29 67  1  0  0  0  0
 30 33  1  0  0  0  0
 30 68  1  0  0  0  0
 30 69  1  0  0  0  0
 31 70  1  0  0  0  0
 33 38  1  0  0  0  0
 33 71  1  0  0  0  0
 33 72  1  0  0  0  0
 35 36  2  0  0  0  0
 35 73  1  0  0  0  0
 36 37  1  0  0  0  0
 36 74  1  0  0  0  0
 37 39  1  0  0  0  0
 37 75  1  0  0  0  0
 37 76  1  0  0  0  0
 38 77  1  0  0  0  0
 38 78  1  0  0  0  0
 38 79  1  0  0  0  0
 39 40  1  0  0  0  0
 39 80  1  0  0  0  0
 39 81  1  0  0  0  0
 40 41  1  0  0  0  0
 40 82  1  0  0  0  0
 40 83  1  0  0  0  0
M  END
> <ConfClashScore>
0 

> <ConfOneFourInteractionScore>
-0.983764 

> <ConfScore>
-0.191768 

> <ConfScorePBest>
0.00760599 

> <ConfTolerance>
1.51082 

$$$$
9548876
  PyMOL2.2          3D                             0

 83 83  0  0  0  0  0  0  0  0999 V2000
   -5.0215   -1.0218   -0.1328 H   0  0  0  1  0  0  0  0  0  0  0  0
   -2.2082    3.5130    0.1461 H   0  0  0  1  0  0  0  0  0  0  0  0
   -3.9086    3.6448    0.5254 H   0  0  0  1  0  0  0  0  0  0  0  0
   -3.1914    3.1897   -0.1253 C   0  0  0  1  0  0  0  0  0  0  0  0
   -3.3943    3.4758   -1.1362 H   0  0  0  1  0  0  0  0  0  0  0  0
  -12.5713   -0.1876   -0.2806 N   0  0  0  1  0  0  0  0  0  0  0  0
  -12.1480    2.5235   -1.1760 C   0  0  0  1  0  0  0  0  0  0  0  0
  -12.2933    3.8847   -0.5077 C   0  0  0  1  0  0  0  0  0  0  0  0
  -13.0299    2.0631   -1.8999 O   0  0  0  1  0  0  0  0  0  0  0  0
  -13.7481   -1.0199   -0.0797 C   0  0  0  1  0  0  0  0  0  0  0  0
    1.9497    2.4410   -0.7702 O   0  0  0  1  0  0  0  0  0  0  0  0
  -11.9422   -1.2997   -2.1491 O   0  0  0  1  0  0  0  0  0  0  0  0
  -10.9898    1.9056   -0.8953 N   0  0  0  1  0  0  0  0  0  0  0  0
    4.5334   -2.8365    1.8095 O   0  5  0  1  0  0  0  0  0  0  0  0
   -4.4622    1.0648   -0.2108 N   0  0  0  1  0  0  0  0  0  0  0  0
    3.4332   -2.5099   -0.1696 O   0  0  0  1  0  0  0  0  0  0  0  0
   -8.2084    1.2166   -1.0466 C   0  0  0  1  0  0  0  0  0  0  0  0
   -9.2746    0.1407   -0.9710 C   0  0  0  1  0  0  0  0  0  0  0  0
   -2.3245    0.7493    0.3099 C   0  0  0  1  0  0  0  0  0  0  0  0
   -6.8693    0.7363   -0.6803 C   0  0  0  1  0  0  0  0  0  0  0  0
   -2.9625   -0.4995    0.2881 C   0  0  0  1  0  0  0  0  0  0  0  0
    1.6399    3.1921    1.4479 C   0  0  0  1  0  0  0  0  0  0  0  0
  -10.6294    0.5983   -1.4840 C   0  0  0  1  0  0  0  0  0  0  0  0
   -5.7237    1.7157   -0.5656 C   0  0  0  1  0  0  0  0  0  0  0  0
   -2.2169   -1.7787    0.5866 C   0  0  0  1  0  0  0  0  0  0  0  0
  -11.7642   -0.4072   -1.3224 C   0  0  0  1  0  0  0  0  0  0  0  0
    1.2622    2.1224    0.4348 C   0  0  0  1  0  0  0  0  0  0  0  0
    0.9883    2.9146    2.7928 C   0  0  0  1  0  0  0  0  0  0  0  0
   -0.8918    0.9369    0.5041 C   0  0  0  1  0  0  0  0  0  0  0  0
    1.2878    4.0232    3.7711 C   0  0  0  1  0  0  0  0  0  0  0  0
   -0.2025    2.0312    0.1835 C   0  0  0  1  0  0  0  0  0  0  0  0
   -3.2794    1.7074   -0.0019 C   0  0  0  1  0  0  0  0  0  0  0  0
    0.8010    3.7899    5.1959 C   0  0  0  1  0  0  0  0  0  0  0  0
   -4.2886   -0.2902   -0.0369 C   0  0  0  1  0  0  0  0  0  0  0  0
   -1.8186   -1.9470    2.0185 C   0  0  0  1  0  0  0  0  0  0  0  0
   -0.5958   -2.1975    2.4349 C   0  0  0  1  0  0  0  0  0  0  0  0
    0.6775   -2.0617    1.6436 C   0  0  0  1  0  0  0  0  0  0  0  0
    1.0984    4.9501    6.1318 C   0  0  0  1  0  0  0  0  0  0  0  0
    1.7823   -1.3456    2.4093 C   0  0  0  1  0  0  0  0  0  0  0  0
    2.9839   -0.9896    1.5437 C   0  0  0  1  0  0  0  0  0  0  0  0
    3.6731   -2.1852    0.9817 C   0  0  0  1  0  0  0  0  0  0  0  0
  -12.3705    0.5355    0.3496 H   0  0  0  1  0  0  0  0  0  0  0  0
  -13.3294    4.1462   -0.4515 H   0  0  0  1  0  0  0  0  0  0  0  0
  -11.7705    4.6211   -1.0815 H   0  0  0  1  0  0  0  0  0  0  0  0
  -11.8822    3.8429    0.4793 H   0  0  0  1  0  0  0  0  0  0  0  0
  -13.9747   -1.5427   -0.9854 H   0  0  0  1  0  0  0  0  0  0  0  0
  -14.5787   -0.4029    0.1930 H   0  0  0  1  0  0  0  0  0  0  0  0
  -13.5562   -1.7260    0.7010 H   0  0  0  1  0  0  0  0  0  0  0  0
    2.8956    2.3520   -0.6326 H   0  0  0  1  0  0  0  0  0  0  0  0
  -10.3614    2.3360   -0.2786 H   0  0  0  1  0  0  0  0  0  0  0  0
   -8.4785    2.0093   -0.3806 H   0  0  0  1  0  0  0  0  0  0  0  0
   -8.1727    1.5890   -2.0491 H   0  0  0  1  0  0  0  0  0  0  0  0
   -9.3822   -0.1590    0.0506 H   0  0  0  1  0  0  0  0  0  0  0  0
   -8.9548   -0.6956   -1.5568 H   0  0  0  1  0  0  0  0  0  0  0  0
   -6.5868    0.0147   -1.4181 H   0  0  0  1  0  0  0  0  0  0  0  0
   -6.9624    0.2563    0.2715 H   0  0  0  1  0  0  0  0  0  0  0  0
    1.3127    4.1458    1.0896 H   0  0  0  1  0  0  0  0  0  0  0  0
    2.7031    3.2015    1.5684 H   0  0  0  1  0  0  0  0  0  0  0  0
  -10.5152    0.7544   -2.5363 H   0  0  0  1  0  0  0  0  0  0  0  0
   -5.6011    2.2115   -1.5058 H   0  0  0  1  0  0  0  0  0  0  0  0
   -5.9623    2.4355    0.1893 H   0  0  0  1  0  0  0  0  0  0  0  0
   -1.3293   -1.7948   -0.0107 H   0  0  0  1  0  0  0  0  0  0  0  0
   -2.8446   -2.6018    0.3159 H   0  0  0  1  0  0  0  0  0  0  0  0
    1.6017    1.1766    0.8024 H   0  0  0  1  0  0  0  0  0  0  0  0
    1.3657    1.9920    3.1817 H   0  0  0  1  0  0  0  0  0  0  0  0
   -0.0709    2.8399    2.6607 H   0  0  0  1  0  0  0  0  0  0  0  0
   -0.3625    0.1491    0.9293 H   0  0  0  1  0  0  0  0  0  0  0  0
    0.8262    4.9174    3.4073 H   0  0  0  1  0  0  0  0  0  0  0  0
    2.3490    4.1567    3.8030 H   0  0  0  1  0  0  0  0  0  0  0  0
   -0.6969    2.8367   -0.2505 H   0  0  0  1  0  0  0  0  0  0  0  0
    1.2806    2.9135    5.5790 H   0  0  0  1  0  0  0  0  0  0  0  0
   -0.2576    3.6362    5.1718 H   0  0  0  1  0  0  0  0  0  0  0  0
   -2.5638   -1.8595    2.7387 H   0  0  0  1  0  0  0  0  0  0  0  0
   -0.4985   -2.5248    3.4173 H   0  0  0  1  0  0  0  0  0  0  0  0
    0.4672   -1.5085    0.7522 H   0  0  0  1  0  0  0  0  0  0  0  0
    1.0228   -3.0405    1.3834 H   0  0  0  1  0  0  0  0  0  0  0  0
    0.5303    5.8057    5.8318 H   0  0  0  1  0  0  0  0  0  0  0  0
    2.1420    5.1828    6.0906 H   0  0  0  1  0  0  0  0  0  0  0  0
    0.8323    4.6784    7.1320 H   0  0  0  1  0  0  0  0  0  0  0  0
    2.1128   -1.9825    3.2030 H   0  0  0  1  0  0  0  0  0  0  0  0
    1.3805   -0.4428    2.8196 H   0  0  0  1  0  0  0  0  0  0  0  0
    3.6834   -0.4424    2.1404 H   0  0  0  1  0  0  0  0  0  0  0  0
    2.6498   -0.3766    0.7328 H   0  0  0  1  0  0  0  0  0  0  0  0
  1 34  1  0  0  0  0
  2  4  1  0  0  0  0
  3  4  1  0  0  0  0
  4  5  1  0  0  0  0
  4 32  1  0  0  0  0
  6 10  1  0  0  0  0
  6 26  1  0  0  0  0
  6 42  1  0  0  0  0
  7  8  1  0  0  0  0
  7  9  2  0  0  0  0
  7 13  1  0  0  0  0
  8 43  1  0  0  0  0
  8 44  1  0  0  0  0
  8 45  1  0  0  0  0
 10 46  1  0  0  0  0
 10 47  1  0  0  0  0
 10 48  1  0  0  0  0
 11 27  1  0  0  0  0
 11 49  1  0  0  0  0
 12 26  2  0  0  0  0
 13 23  1  0  0  0  0
 13 50  1  0  0  0  0
 14 41  1  0  0  0  0
 15 24  1  0  0  0  0
 15 32  4  0  0  0  0
 15 34  4  0  0  0  0
 16 41  2  0  0  0  0
 17 18  1  0  0  0  0
 17 20  1  0  0  0  0
 17 51  1  0  0  0  0
 17 52  1  0  0  0  0
 18 23  1  0  0  0  0
 18 53  1  0  0  0  0
 18 54  1  0  0  0  0
 19 21  4  0  0  0  0
 19 29  1  0  0  0  0
 19 32  4  0  0  0  0
 20 24  1  0  0  0  0
 20 55  1  0  0  0  0
 20 56  1  0  0  0  0
 21 25  1  0  0  0  0
 21 34  4  0  0  0  0
 22 27  1  0  0  0  0
 22 28  1  0  0  0  0
 22 57  1  0  0  0  0
 22 58  1  0  0  0  0
 23 26  1  0  0  0  0
 23 59  1  0  0  0  0
 24 60  1  0  0  0  0
 24 61  1  0  0  0  0
 25 35  1  0  0  0  0
 25 62  1  0  0  0  0
 25 63  1  0  0  0  0
 27 31  1  0  0  0  0
 27 64  1  0  0  0  0
 28 30  1  0  0  0  0
 28 65  1  0  0  0  0
 28 66  1  0  0  0  0
 29 31  2  0  0  0  0
 29 67  1  0  0  0  0
 30 33  1  0  0  0  0
 30 68  1  0  0  0  0
 30 69  1  0  0  0  0
 31 70  1  0  0  0  0
 33 38  1  0  0  0  0
 33 71  1  0  0  0  0
 33 72  1  0  0  0  0
 35 36  2  0  0  0  0
 35 73  1  0  0  0  0
 36 37  1  0  0  0  0
 36 74  1  0  0  0  0
 37 39  1  0  0  0  0
 37 75  1  0  0  0  0
 37 76  1  0  0  0  0
 38 77  1  0  0  0  0
 38 78  1  0  0  0  0
 38 79  1  0  0  0  0
 39 40  1  0  0  0  0
 39 80  1  0  0  0  0
 39 81  1  0  0  0  0
 40 41  1  0  0  0  0
 40 82  1  0  0  0  0
 40 83  1  0  0  0  0
M  END
> <ConfClashScore>
0 

> <ConfOneFourInteractionScore>
-0.982895 

> <ConfScore>
-0.187215 

> <ConfScorePBest>
0.00757751 

> <ConfTolerance>
1.41799 

$$$$
9548876
  PyMOL2.2          3D                             0

 83 83  0  0  0  0  0  0  0  0999 V2000
   -4.9937   -1.0394   -0.1356 H   0  0  0  1  0  0  0  0  0  0  0  0
   -2.7852    3.5947    0.7749 H   0  0  0  1  0  0  0  0  0  0  0  0
   -4.1284    3.6133   -0.3422 H   0  0  0  1  0  0  0  0  0  0  0  0
   -3.1655    3.1925   -0.1408 C   0  0  0  1  0  0  0  0  0  0  0  0
   -2.4964    3.4324   -0.9406 H   0  0  0  1  0  0  0  0  0  0  0  0
  -12.1740    0.5961    2.1792 N   0  0  0  1  0  0  0  0  0  0  0  0
  -11.8868    3.4045    0.5648 C   0  0  0  1  0  0  0  0  0  0  0  0
  -11.8774    4.8042    1.1800 C   0  0  0  1  0  0  0  0  0  0  0  0
  -12.8802    2.9967   -0.0356 O   0  0  0  1  0  0  0  0  0  0  0  0
  -13.1962   -0.1278    2.9201 C   0  0  0  1  0  0  0  0  0  0  0  0
    1.6806    1.4098    1.3665 O   0  0  0  1  0  0  0  0  0  0  0  0
  -12.4182   -0.4676    0.2221 O   0  0  0  1  0  0  0  0  0  0  0  0
  -10.8137    2.6300    0.7904 N   0  0  0  1  0  0  0  0  0  0  0  0
   -5.5163   -7.6103   -3.4708 O   0  5  0  1  0  0  0  0  0  0  0  0
   -4.4608    1.0536   -0.2251 N   0  0  0  1  0  0  0  0  0  0  0  0
   -3.5229   -7.0003   -4.3813 O   0  0  0  1  0  0  0  0  0  0  0  0
   -8.2648    1.5021    0.0105 C   0  0  0  1  0  0  0  0  0  0  0  0
   -9.3960    0.6606    0.5472 C   0  0  0  1  0  0  0  0  0  0  0  0
   -2.3184    0.7677    0.2931 C   0  0  0  1  0  0  0  0  0  0  0  0
   -6.9009    0.8535    0.1752 C   0  0  0  1  0  0  0  0  0  0  0  0
   -2.9406   -0.4892    0.2787 C   0  0  0  1  0  0  0  0  0  0  0  0
    1.4755    3.6555    0.5065 C   0  0  0  1  0  0  0  0  0  0  0  0
  -10.7793    1.2659    0.2879 C   0  0  0  1  0  0  0  0  0  0  0  0
   -5.7776    1.6383   -0.4806 C   0  0  0  1  0  0  0  0  0  0  0  0
   -2.3294   -1.8471    0.5568 C   0  0  0  1  0  0  0  0  0  0  0  0
  -11.8453    0.3653    0.9049 C   0  0  0  1  0  0  0  0  0  0  0  0
    0.8728    2.5841    1.4199 C   0  0  0  1  0  0  0  0  0  0  0  0
    1.6090    3.2086   -0.9394 C   0  0  0  1  0  0  0  0  0  0  0  0
   -0.9220    1.0766    0.5787 C   0  0  0  1  0  0  0  0  0  0  0  0
    2.1107    4.2956   -1.8574 C   0  0  0  1  0  0  0  0  0  0  0  0
   -0.5362    2.2342    1.0599 C   0  0  0  1  0  0  0  0  0  0  0  0
   -3.2859    1.7121   -0.0217 C   0  0  0  1  0  0  0  0  0  0  0  0
    2.0679    3.9700   -3.3415 C   0  0  0  1  0  0  0  0  0  0  0  0
   -4.2699   -0.2982   -0.0448 C   0  0  0  1  0  0  0  0  0  0  0  0
   -1.3578   -2.2670   -0.5190 C   0  0  0  1  0  0  0  0  0  0  0  0
   -1.7253   -3.2650   -1.2553 C   0  0  0  1  0  0  0  0  0  0  0  0
   -3.0855   -3.8901   -1.4140 C   0  0  0  1  0  0  0  0  0  0  0  0
    2.6399    5.1152   -4.1611 C   0  0  0  1  0  0  0  0  0  0  0  0
   -3.1461   -4.9077   -2.5457 C   0  0  0  1  0  0  0  0  0  0  0  0
   -4.4161   -5.7428   -2.5378 C   0  0  0  1  0  0  0  0  0  0  0  0
   -4.4083   -6.8267   -3.5601 C   0  0  0  1  0  0  0  0  0  0  0  0
  -11.6903    1.3063    2.6504 H   0  0  0  1  0  0  0  0  0  0  0  0
  -11.4788    5.5021    0.4736 H   0  0  0  1  0  0  0  0  0  0  0  0
  -11.2699    4.8023    2.0608 H   0  0  0  1  0  0  0  0  0  0  0  0
  -12.8768    5.0877    1.4360 H   0  0  0  1  0  0  0  0  0  0  0  0
  -12.7361   -0.6964    3.7010 H   0  0  0  1  0  0  0  0  0  0  0  0
  -13.7165   -0.7877    2.2577 H   0  0  0  1  0  0  0  0  0  0  0  0
  -13.8878    0.5686    3.3464 H   0  0  0  1  0  0  0  0  0  0  0  0
    2.3382    1.4411    2.0653 H   0  0  0  1  0  0  0  0  0  0  0  0
  -10.0520    2.9847    1.2947 H   0  0  0  1  0  0  0  0  0  0  0  0
   -8.2609    2.4370    0.5310 H   0  0  0  1  0  0  0  0  0  0  0  0
   -8.4349    1.6743   -1.0318 H   0  0  0  1  0  0  0  0  0  0  0  0
   -9.2660    0.5515    1.6037 H   0  0  0  1  0  0  0  0  0  0  0  0
   -9.3539   -0.3016    0.0809 H   0  0  0  1  0  0  0  0  0  0  0  0
   -6.9340   -0.1220   -0.2631 H   0  0  0  1  0  0  0  0  0  0  0  0
   -6.6898    0.7683    1.2207 H   0  0  0  1  0  0  0  0  0  0  0  0
    2.4480    3.9074    0.8749 H   0  0  0  1  0  0  0  0  0  0  0  0
    0.8467    4.5207    0.5374 H   0  0  0  1  0  0  0  0  0  0  0  0
  -10.9360    1.2838   -0.7704 H   0  0  0  1  0  0  0  0  0  0  0  0
   -5.9447    1.6582   -1.5373 H   0  0  0  1  0  0  0  0  0  0  0  0
   -5.7890    2.6377   -0.0984 H   0  0  0  1  0  0  0  0  0  0  0  0
   -3.1139   -2.5725    0.6143 H   0  0  0  1  0  0  0  0  0  0  0  0
   -1.8112   -1.8065    1.4920 H   0  0  0  1  0  0  0  0  0  0  0  0
    0.8742    2.9669    2.4191 H   0  0  0  1  0  0  0  0  0  0  0  0
    0.6485    2.8886   -1.2856 H   0  0  0  1  0  0  0  0  0  0  0  0
    2.2945    2.3880   -0.9789 H   0  0  0  1  0  0  0  0  0  0  0  0
   -0.2024    0.3490    0.3931 H   0  0  0  1  0  0  0  0  0  0  0  0
    3.1266    4.5055   -1.5953 H   0  0  0  1  0  0  0  0  0  0  0  0
    1.5122    5.1673   -1.6939 H   0  0  0  1  0  0  0  0  0  0  0  0
   -1.2643    2.9632    1.2018 H   0  0  0  1  0  0  0  0  0  0  0  0
    1.0527    3.8016   -3.6346 H   0  0  0  1  0  0  0  0  0  0  0  0
    2.6434    3.0865   -3.5236 H   0  0  0  1  0  0  0  0  0  0  0  0
   -0.4479   -1.7833   -0.6597 H   0  0  0  1  0  0  0  0  0  0  0  0
   -0.9691   -3.6999   -1.8216 H   0  0  0  1  0  0  0  0  0  0  0  0
   -3.7953   -3.1150   -1.6146 H   0  0  0  1  0  0  0  0  0  0  0  0
   -3.3430   -4.3822   -0.4994 H   0  0  0  1  0  0  0  0  0  0  0  0
    3.1668    4.7219   -5.0052 H   0  0  0  1  0  0  0  0  0  0  0  0
    3.3125    5.6858   -3.5553 H   0  0  0  1  0  0  0  0  0  0  0  0
    1.8431    5.7440   -4.4996 H   0  0  0  1  0  0  0  0  0  0  0  0
   -2.3070   -5.5654   -2.4558 H   0  0  0  1  0  0  0  0  0  0  0  0
   -3.0908   -4.3833   -3.4768 H   0  0  0  1  0  0  0  0  0  0  0  0
   -5.2485   -5.0987   -2.7307 H   0  0  0  1  0  0  0  0  0  0  0  0
   -4.5253   -6.1875   -1.5707 H   0  0  0  1  0  0  0  0  0  0  0  0
  1 34  1  0  0  0  0
  2  4  1  0  0  0  0
  3  4  1  0  0  0  0
  4  5  1  0  0  0  0
  4 32  1  0  0  0  0
  6 10  1  0  0  0  0
  6 26  1  0  0  0  0
  6 42  1  0  0  0  0
  7  8  1  0  0  0  0
  7  9  2  0  0  0  0
  7 13  1  0  0  0  0
  8 43  1  0  0  0  0
  8 44  1  0  0  0  0
  8 45  1  0  0  0  0
 10 46  1  0  0  0  0
 10 47  1  0  0  0  0
 10 48  1  0  0  0  0
 11 27  1  0  0  0  0
 11 49  1  0  0  0  0
 12 26  2  0  0  0  0
 13 23  1  0  0  0  0
 13 50  1  0  0  0  0
 14 41  1  0  0  0  0
 15 24  1  0  0  0  0
 15 32  4  0  0  0  0
 15 34  4  0  0  0  0
 16 41  2  0  0  0  0
 17 18  1  0  0  0  0
 17 20  1  0  0  0  0
 17 51  1  0  0  0  0
 17 52  1  0  0  0  0
 18 23  1  0  0  0  0
 18 53  1  0  0  0  0
 18 54  1  0  0  0  0
 19 21  4  0  0  0  0
 19 29  1  0  0  0  0
 19 32  4  0  0  0  0
 20 24  1  0  0  0  0
 20 55  1  0  0  0  0
 20 56  1  0  0  0  0
 21 25  1  0  0  0  0
 21 34  4  0  0  0  0
 22 27  1  0  0  0  0
 22 28  1  0  0  0  0
 22 57  1  0  0  0  0
 22 58  1  0  0  0  0
 23 26  1  0  0  0  0
 23 59  1  0  0  0  0
 24 60  1  0  0  0  0
 24 61  1  0  0  0  0
 25 35  1  0  0  0  0
 25 62  1  0  0  0  0
 25 63  1  0  0  0  0
 27 31  1  0  0  0  0
 27 64  1  0  0  0  0
 28 30  1  0  0  0  0
 28 65  1  0  0  0  0
 28 66  1  0  0  0  0
 29 31  2  0  0  0  0
 29 67  1  0  0  0  0
 30 33  1  0  0  0  0
 30 68  1  0  0  0  0
 30 69  1  0  0  0  0
 31 70  1  0  0  0  0
 33 38  1  0  0  0  0
 33 71  1  0  0  0  0
 33 72  1  0  0  0  0
 35 36  2  0  0  0  0
 35 73  1  0  0  0  0
 36 37  1  0  0  0  0
 36 74  1  0  0  0  0
 37 39  1  0  0  0  0
 37 75  1  0  0  0  0
 37 76  1  0  0  0  0
 38 77  1  0  0  0  0
 38 78  1  0  0  0  0
 38 79  1  0  0  0  0
 39 40  1  0  0  0  0
 39 80  1  0  0  0  0
 39 81  1  0  0  0  0
 40 41  1  0  0  0  0
 40 82  1  0  0  0  0
 40 83  1  0  0  0  0
M  END
> <ConfClashScore>
0 

> <ConfOneFourInteractionScore>
-0.986959 

> <ConfScore>
-0.186532 

> <ConfScorePBest>
0.00754903 

> <ConfTolerance>
1.65224 

$$$$
9548876
  PyMOL2.2          3D                             0

 83 83  0  0  0  0  0  0  0  0999 V2000
   -5.0242   -1.0228   -0.1810 H   0  0  0  1  0  0  0  0  0  0  0  0
   -2.3937    3.4300   -0.8392 H   0  0  0  1  0  0  0  0  0  0  0  0
   -2.9555    3.6048    0.8059 H   0  0  0  1  0  0  0  0  0  0  0  0
   -3.1744    3.1800   -0.1515 C   0  0  0  1  0  0  0  0  0  0  0  0
   -4.1041    3.5691   -0.5109 H   0  0  0  1  0  0  0  0  0  0  0  0
   -8.2952    2.1355   -6.7890 N   0  0  0  1  0  0  0  0  0  0  0  0
   -9.8079    2.1324   -4.0968 C   0  0  0  1  0  0  0  0  0  0  0  0
  -10.7858    1.0771   -3.6467 C   0  0  0  1  0  0  0  0  0  0  0  0
  -10.1140    3.2728   -4.3925 O   0  0  0  1  0  0  0  0  0  0  0  0
   -8.5544    2.4274   -8.1910 C   0  0  0  1  0  0  0  0  0  0  0  0
    1.7725    1.0501    0.5756 O   0  0  0  1  0  0  0  0  0  0  0  0
   -7.1046    3.9979   -6.4214 O   0  0  0  1  0  0  0  0  0  0  0  0
   -8.5439    1.7025   -4.1460 N   0  0  0  1  0  0  0  0  0  0  0  0
   -5.5999   -7.5283    4.1487 O   0  5  0  1  0  0  0  0  0  0  0  0
   -4.4537    1.0609   -0.2538 N   0  0  0  1  0  0  0  0  0  0  0  0
   -3.3318   -7.3566    3.8868 O   0  0  0  1  0  0  0  0  0  0  0  0
   -5.9696    1.3260   -2.8852 C   0  0  0  1  0  0  0  0  0  0  0  0
   -6.0938    1.8923   -4.2779 C   0  0  0  1  0  0  0  0  0  0  0  0
   -2.3264    0.7364    0.3029 C   0  0  0  1  0  0  0  0  0  0  0  0
   -5.9400    2.3427   -1.7710 C   0  0  0  1  0  0  0  0  0  0  0  0
   -2.9699   -0.5094    0.2730 C   0  0  0  1  0  0  0  0  0  0  0  0
    1.6253    2.4591   -1.4184 C   0  0  0  1  0  0  0  0  0  0  0  0
   -7.4430    2.5687   -4.5403 C   0  0  0  1  0  0  0  0  0  0  0  0
   -5.7500    1.7244   -0.3964 C   0  0  0  1  0  0  0  0  0  0  0  0
   -2.2355   -1.7915    0.5864 C   0  0  0  1  0  0  0  0  0  0  0  0
   -7.5747    2.9492   -6.0120 C   0  0  0  1  0  0  0  0  0  0  0  0
    1.1755    2.2220    0.0289 C   0  0  0  1  0  0  0  0  0  0  0  0
    1.2067    3.7774   -2.0208 C   0  0  0  1  0  0  0  0  0  0  0  0
   -0.9255    1.0213    0.6163 C   0  0  0  1  0  0  0  0  0  0  0  0
    1.8797    4.0726   -3.3504 C   0  0  0  1  0  0  0  0  0  0  0  0
   -0.3069    2.0234    0.0388 C   0  0  0  1  0  0  0  0  0  0  0  0
   -3.2715    1.6984   -0.0266 C   0  0  0  1  0  0  0  0  0  0  0  0
    1.5430    5.4654   -3.8225 C   0  0  0  1  0  0  0  0  0  0  0  0
   -4.2894   -0.2945   -0.0744 C   0  0  0  1  0  0  0  0  0  0  0  0
   -2.3889   -2.9189   -0.3846 C   0  0  0  1  0  0  0  0  0  0  0  0
   -3.0367   -4.0434   -0.1941 C   0  0  0  1  0  0  0  0  0  0  0  0
   -4.0140   -4.2534    0.9359 C   0  0  0  1  0  0  0  0  0  0  0  0
    2.2146    5.8356   -5.1349 C   0  0  0  1  0  0  0  0  0  0  0  0
   -3.7160   -5.5552    1.6740 C   0  0  0  1  0  0  0  0  0  0  0  0
   -4.7399   -5.7994    2.7704 C   0  0  0  1  0  0  0  0  0  0  0  0
   -4.4643   -6.9679    3.6529 C   0  0  0  1  0  0  0  0  0  0  0  0
   -8.6619    1.3135   -6.4014 H   0  0  0  1  0  0  0  0  0  0  0  0
  -11.4773    0.8707   -4.4367 H   0  0  0  1  0  0  0  0  0  0  0  0
  -11.3196    1.4286   -2.7886 H   0  0  0  1  0  0  0  0  0  0  0  0
  -10.2546    0.1829   -3.3953 H   0  0  0  1  0  0  0  0  0  0  0  0
   -8.5966    1.5126   -8.7444 H   0  0  0  1  0  0  0  0  0  0  0  0
   -7.7690    3.0423   -8.5781 H   0  0  0  1  0  0  0  0  0  0  0  0
   -9.4883    2.9419   -8.2811 H   0  0  0  1  0  0  0  0  0  0  0  0
    2.7052    1.2106    0.7362 H   0  0  0  1  0  0  0  0  0  0  0  0
   -8.3514    0.7714   -3.9084 H   0  0  0  1  0  0  0  0  0  0  0  0
   -5.0625    0.7602   -2.8392 H   0  0  0  1  0  0  0  0  0  0  0  0
   -6.8039    0.6774   -2.7174 H   0  0  0  1  0  0  0  0  0  0  0  0
   -5.9720    1.0946   -4.9806 H   0  0  0  1  0  0  0  0  0  0  0  0
   -5.3183    2.6155   -4.4205 H   0  0  0  1  0  0  0  0  0  0  0  0
   -6.8658    2.8792   -1.7767 H   0  0  0  1  0  0  0  0  0  0  0  0
   -5.1328    3.0213   -1.9523 H   0  0  0  1  0  0  0  0  0  0  0  0
    1.2172    1.6762   -2.0228 H   0  0  0  1  0  0  0  0  0  0  0  0
    2.6939    2.4098   -1.4436 H   0  0  0  1  0  0  0  0  0  0  0  0
   -7.4813    3.4669   -3.9601 H   0  0  0  1  0  0  0  0  0  0  0  0
   -5.8225    2.4972    0.3401 H   0  0  0  1  0  0  0  0  0  0  0  0
   -6.5238    1.0034   -0.2348 H   0  0  0  1  0  0  0  0  0  0  0  0
   -2.5814   -2.1367    1.5383 H   0  0  0  1  0  0  0  0  0  0  0  0
   -1.1929   -1.5589    0.6480 H   0  0  0  1  0  0  0  0  0  0  0  0
    1.4222    3.0808    0.6176 H   0  0  0  1  0  0  0  0  0  0  0  0
    1.4558    4.5588   -1.3336 H   0  0  0  1  0  0  0  0  0  0  0  0
    0.1478    3.7597   -2.1731 H   0  0  0  1  0  0  0  0  0  0  0  0
   -0.4176    0.4257    1.3010 H   0  0  0  1  0  0  0  0  0  0  0  0
    1.5436    3.3645   -4.0787 H   0  0  0  1  0  0  0  0  0  0  0  0
    2.9400    3.9886   -3.2333 H   0  0  0  1  0  0  0  0  0  0  0  0
   -0.8908    2.7328   -0.4486 H   0  0  0  1  0  0  0  0  0  0  0  0
    1.8554    6.1624   -3.0731 H   0  0  0  1  0  0  0  0  0  0  0  0
    0.4831    5.5324   -3.9530 H   0  0  0  1  0  0  0  0  0  0  0  0
   -1.9323   -2.7982   -1.3112 H   0  0  0  1  0  0  0  0  0  0  0  0
   -2.8685   -4.8290   -0.8546 H   0  0  0  1  0  0  0  0  0  0  0  0
   -5.0065   -4.2949    0.5383 H   0  0  0  1  0  0  0  0  0  0  0  0
   -3.9379   -3.4358    1.6220 H   0  0  0  1  0  0  0  0  0  0  0  0
    1.9373    5.1296   -5.8896 H   0  0  0  1  0  0  0  0  0  0  0  0
    3.2769    5.8225   -5.0077 H   0  0  0  1  0  0  0  0  0  0  0  0
    1.9023    6.8152   -5.4311 H   0  0  0  1  0  0  0  0  0  0  0  0
   -2.7412   -5.4953    2.1112 H   0  0  0  1  0  0  0  0  0  0  0  0
   -3.7462   -6.3677    0.9784 H   0  0  0  1  0  0  0  0  0  0  0  0
   -5.6910   -5.9541    2.3053 H   0  0  0  1  0  0  0  0  0  0  0  0
   -4.7808   -4.9242    3.3847 H   0  0  0  1  0  0  0  0  0  0  0  0
  1 34  1  0  0  0  0
  2  4  1  0  0  0  0
  3  4  1  0  0  0  0
  4  5  1  0  0  0  0
  4 32  1  0  0  0  0
  6 10  1  0  0  0  0
  6 26  1  0  0  0  0
  6 42  1  0  0  0  0
  7  8  1  0  0  0  0
  7  9  2  0  0  0  0
  7 13  1  0  0  0  0
  8 43  1  0  0  0  0
  8 44  1  0  0  0  0
  8 45  1  0  0  0  0
 10 46  1  0  0  0  0
 10 47  1  0  0  0  0
 10 48  1  0  0  0  0
 11 27  1  0  0  0  0
 11 49  1  0  0  0  0
 12 26  2  0  0  0  0
 13 23  1  0  0  0  0
 13 50  1  0  0  0  0
 14 41  1  0  0  0  0
 15 24  1  0  0  0  0
 15 32  4  0  0  0  0
 15 34  4  0  0  0  0
 16 41  2  0  0  0  0
 17 18  1  0  0  0  0
 17 20  1  0  0  0  0
 17 51  1  0  0  0  0
 17 52  1  0  0  0  0
 18 23  1  0  0  0  0
 18 53  1  0  0  0  0
 18 54  1  0  0  0  0
 19 21  4  0  0  0  0
 19 29  1  0  0  0  0
 19 32  4  0  0  0  0
 20 24  1  0  0  0  0
 20 55  1  0  0  0  0
 20 56  1  0  0  0  0
 21 25  1  0  0  0  0
 21 34  4  0  0  0  0
 22 27  1  0  0  0  0
 22 28  1  0  0  0  0
 22 57  1  0  0  0  0
 22 58  1  0  0  0  0
 23 26  1  0  0  0  0
 23 59  1  0  0  0  0
 24 60  1  0  0  0  0
 24 61  1  0  0  0  0
 25 35  1  0  0  0  0
 25 62  1  0  0  0  0
 25 63  1  0  0  0  0
 27 31  1  0  0  0  0
 27 64  1  0  0  0  0
 28 30  1  0  0  0  0
 28 65  1  0  0  0  0
 28 66  1  0  0  0  0
 29 31  2  0  0  0  0
 29 67  1  0  0  0  0
 30 33  1  0  0  0  0
 30 68  1  0  0  0  0
 30 69  1  0  0  0  0
 31 70  1  0  0  0  0
 33 38  1  0  0  0  0
 33 71  1  0  0  0  0
 33 72  1  0  0  0  0
 35 36  2  0  0  0  0
 35 73  1  0  0  0  0
 36 37  1  0  0  0  0
 36 74  1  0  0  0  0
 37 39  1  0  0  0  0
 37 75  1  0  0  0  0
 37 76  1  0  0  0  0
 38 77  1  0  0  0  0
 38 78  1  0  0  0  0
 38 79  1  0  0  0  0
 39 40  1  0  0  0  0
 39 80  1  0  0  0  0
 39 81  1  0  0  0  0
 40 41  1  0  0  0  0
 40 82  1  0  0  0  0
 40 83  1  0  0  0  0
M  END
> <ConfClashScore>
0 

> <ConfOneFourInteractionScore>
-0.984625 

> <ConfScore>
-0.18101 

> <ConfScorePBest>
0.00752055 

> <ConfTolerance>
1.66615 

$$$$
9548876
  PyMOL2.2          3D                             0

 83 83  0  0  0  0  0  0  0  0999 V2000
   -5.0055   -1.0466   -0.1323 H   0  0  0  1  0  0  0  0  0  0  0  0
   -3.4030    3.4791   -1.1454 H   0  0  0  1  0  0  0  0  0  0  0  0
   -2.1688    3.4771    0.0913 H   0  0  0  1  0  0  0  0  0  0  0  0
   -3.1700    3.1821   -0.1441 C   0  0  0  1  0  0  0  0  0  0  0  0
   -3.8500    3.6530    0.5346 H   0  0  0  1  0  0  0  0  0  0  0  0
  -10.7069    4.4885    3.7861 N   0  0  0  1  0  0  0  0  0  0  0  0
  -11.1388    5.2304    0.9480 C   0  0  0  1  0  0  0  0  0  0  0  0
  -10.9650    6.6475    0.4372 C   0  0  0  1  0  0  0  0  0  0  0  0
  -12.2431    4.7184    1.0312 O   0  0  0  1  0  0  0  0  0  0  0  0
  -11.4635    4.8097    4.9871 C   0  0  0  1  0  0  0  0  0  0  0  0
    1.8388    0.3513    2.6400 O   0  0  0  1  0  0  0  0  0  0  0  0
  -11.0936    2.2671    3.7376 O   0  0  0  1  0  0  0  0  0  0  0  0
  -10.0096    4.5931    1.2953 N   0  0  0  1  0  0  0  0  0  0  0  0
   -5.1906   -5.8005   -4.2468 O   0  5  0  1  0  0  0  0  0  0  0  0
   -4.4691    1.0454   -0.2249 N   0  0  0  1  0  0  0  0  0  0  0  0
   -3.4890   -7.2411   -4.6083 O   0  0  0  1  0  0  0  0  0  0  0  0
   -7.8888    2.5037    0.6257 C   0  0  0  1  0  0  0  0  0  0  0  0
   -8.5844    2.6959    1.9646 C   0  0  0  1  0  0  0  0  0  0  0  0
   -2.3269    0.7565    0.2927 C   0  0  0  1  0  0  0  0  0  0  0  0
   -6.4765    1.9749    0.8230 C   0  0  0  1  0  0  0  0  0  0  0  0
   -2.9513   -0.4993    0.2804 C   0  0  0  1  0  0  0  0  0  0  0  0
    2.4458    0.2344    0.3329 C   0  0  0  1  0  0  0  0  0  0  0  0
  -10.0142    3.2416    1.8351 C   0  0  0  1  0  0  0  0  0  0  0  0
   -5.7383    1.7266   -0.4823 C   0  0  0  1  0  0  0  0  0  0  0  0
   -2.2895   -1.8260    0.5688 C   0  0  0  1  0  0  0  0  0  0  0  0
  -10.6360    3.2767    3.2280 C   0  0  0  1  0  0  0  0  0  0  0  0
    1.4241    0.7713    1.3409 C   0  0  0  1  0  0  0  0  0  0  0  0
    2.0474   -1.1000   -0.2762 C   0  0  0  1  0  0  0  0  0  0  0  0
   -0.9281    1.0638    0.5777 C   0  0  0  1  0  0  0  0  0  0  0  0
    3.1568   -1.6391   -1.1661 C   0  0  0  1  0  0  0  0  0  0  0  0
    0.0506    0.2941    0.9902 C   0  0  0  1  0  0  0  0  0  0  0  0
   -3.2929    1.7022   -0.0229 C   0  0  0  1  0  0  0  0  0  0  0  0
    2.7511   -2.9645   -1.7898 C   0  0  0  1  0  0  0  0  0  0  0  0
   -4.2804   -0.3065   -0.0429 C   0  0  0  1  0  0  0  0  0  0  0  0
   -1.2062   -2.2026   -0.3913 C   0  0  0  1  0  0  0  0  0  0  0  0
   -1.2614   -3.2116   -1.2243 C   0  0  0  1  0  0  0  0  0  0  0  0
   -2.2471   -4.3492   -1.2070 C   0  0  0  1  0  0  0  0  0  0  0  0
    3.8518   -3.6005   -2.6231 C   0  0  0  1  0  0  0  0  0  0  0  0
   -2.4797   -4.9564   -2.5809 C   0  0  0  1  0  0  0  0  0  0  0  0
   -3.5946   -5.9883   -2.5321 C   0  0  0  1  0  0  0  0  0  0  0  0
   -4.0409   -6.4297   -3.8835 C   0  0  0  1  0  0  0  0  0  0  0  0
  -10.2121    5.2159    3.3542 H   0  0  0  1  0  0  0  0  0  0  0  0
  -11.8223    7.2304    0.7022 H   0  0  0  1  0  0  0  0  0  0  0  0
  -10.8598    6.6322   -0.6275 H   0  0  0  1  0  0  0  0  0  0  0  0
  -10.0904    7.0799    0.8764 H   0  0  0  1  0  0  0  0  0  0  0  0
  -10.7929    5.1319    5.7562 H   0  0  0  1  0  0  0  0  0  0  0  0
  -11.9936    3.9409    5.3174 H   0  0  0  1  0  0  0  0  0  0  0  0
  -12.1601    5.5925    4.7707 H   0  0  0  1  0  0  0  0  0  0  0  0
    1.6406    1.0407    3.2780 H   0  0  0  1  0  0  0  0  0  0  0  0
   -9.1522    5.0539    1.1813 H   0  0  0  1  0  0  0  0  0  0  0  0
   -7.8437    3.4433    0.1157 H   0  0  0  1  0  0  0  0  0  0  0  0
   -8.4463    1.8047    0.0379 H   0  0  0  1  0  0  0  0  0  0  0  0
   -8.0104    3.3839    2.5494 H   0  0  0  1  0  0  0  0  0  0  0  0
   -8.6261    1.7505    2.4641 H   0  0  0  1  0  0  0  0  0  0  0  0
   -6.5318    1.0523    1.3622 H   0  0  0  1  0  0  0  0  0  0  0  0
   -5.9232    2.6902    1.3949 H   0  0  0  1  0  0  0  0  0  0  0  0
    3.3839    0.1124    0.8330 H   0  0  0  1  0  0  0  0  0  0  0  0
    2.5520    0.9493   -0.4560 H   0  0  0  1  0  0  0  0  0  0  0  0
  -10.5855    2.5908    1.2067 H   0  0  0  1  0  0  0  0  0  0  0  0
   -6.3435    1.1164   -1.1197 H   0  0  0  1  0  0  0  0  0  0  0  0
   -5.5453    2.6631   -0.9625 H   0  0  0  1  0  0  0  0  0  0  0  0
   -3.0409   -2.5872    0.5395 H   0  0  0  1  0  0  0  0  0  0  0  0
   -1.8649   -1.7808    1.5500 H   0  0  0  1  0  0  0  0  0  0  0  0
    1.4336    1.8400    1.2892 H   0  0  0  1  0  0  0  0  0  0  0  0
    1.1613   -0.9680   -0.8613 H   0  0  0  1  0  0  0  0  0  0  0  0
    1.8557   -1.8009    0.5092 H   0  0  0  1  0  0  0  0  0  0  0  0
   -0.6639    2.0586    0.4287 H   0  0  0  1  0  0  0  0  0  0  0  0
    4.0391   -1.7836   -0.5782 H   0  0  0  1  0  0  0  0  0  0  0  0
    3.3576   -0.9322   -1.9438 H   0  0  0  1  0  0  0  0  0  0  0  0
   -0.1428   -0.7237    1.0802 H   0  0  0  1  0  0  0  0  0  0  0  0
    1.9024   -2.7973   -2.4197 H   0  0  0  1  0  0  0  0  0  0  0  0
    2.4855   -3.6416   -1.0050 H   0  0  0  1  0  0  0  0  0  0  0  0
   -0.3449   -1.6198   -0.3979 H   0  0  0  1  0  0  0  0  0  0  0  0
   -0.5468   -3.2288   -1.9796 H   0  0  0  1  0  0  0  0  0  0  0  0
   -3.1811   -3.9849   -0.8331 H   0  0  0  1  0  0  0  0  0  0  0  0
   -1.8749   -5.1124   -0.5559 H   0  0  0  1  0  0  0  0  0  0  0  0
    4.1290   -4.5396   -2.1917 H   0  0  0  1  0  0  0  0  0  0  0  0
    4.7031   -2.9524   -2.6433 H   0  0  0  1  0  0  0  0  0  0  0  0
    3.4984   -3.7570   -3.6208 H   0  0  0  1  0  0  0  0  0  0  0  0
   -1.5788   -5.4286   -2.9129 H   0  0  0  1  0  0  0  0  0  0  0  0
   -2.7497   -4.1803   -3.2663 H   0  0  0  1  0  0  0  0  0  0  0  0
   -4.4313   -5.5617   -2.0195 H   0  0  0  1  0  0  0  0  0  0  0  0
   -3.2437   -6.8435   -1.9932 H   0  0  0  1  0  0  0  0  0  0  0  0
  1 34  1  0  0  0  0
  2  4  1  0  0  0  0
  3  4  1  0  0  0  0
  4  5  1  0  0  0  0
  4 32  1  0  0  0  0
  6 10  1  0  0  0  0
  6 26  1  0  0  0  0
  6 42  1  0  0  0  0
  7  8  1  0  0  0  0
  7  9  2  0  0  0  0
  7 13  1  0  0  0  0
  8 43  1  0  0  0  0
  8 44  1  0  0  0  0
  8 45  1  0  0  0  0
 10 46  1  0  0  0  0
 10 47  1  0  0  0  0
 10 48  1  0  0  0  0
 11 27  1  0  0  0  0
 11 49  1  0  0  0  0
 12 26  2  0  0  0  0
 13 23  1  0  0  0  0
 13 50  1  0  0  0  0
 14 41  1  0  0  0  0
 15 24  1  0  0  0  0
 15 32  4  0  0  0  0
 15 34  4  0  0  0  0
 16 41  2  0  0  0  0
 17 18  1  0  0  0  0
 17 20  1  0  0  0  0
 17 51  1  0  0  0  0
 17 52  1  0  0  0  0
 18 23  1  0  0  0  0
 18 53  1  0  0  0  0
 18 54  1  0  0  0  0
 19 21  4  0  0  0  0
 19 29  1  0  0  0  0
 19 32  4  0  0  0  0
 20 24  1  0  0  0  0
 20 55  1  0  0  0  0
 20 56  1  0  0  0  0
 21 25  1  0  0  0  0
 21 34  4  0  0  0  0
 22 27  1  0  0  0  0
 22 28  1  0  0  0  0
 22 57  1  0  0  0  0
 22 58  1  0  0  0  0
 23 26  1  0  0  0  0
 23 59  1  0  0  0  0
 24 60  1  0  0  0  0
 24 61  1  0  0  0  0
 25 35  1  0  0  0  0
 25 62  1  0  0  0  0
 25 63  1  0  0  0  0
 27 31  1  0  0  0  0
 27 64  1  0  0  0  0
 28 30  1  0  0  0  0
 28 65  1  0  0  0  0
 28 66  1  0  0  0  0
 29 31  2  0  0  0  0
 29 67  1  0  0  0  0
 30 33  1  0  0  0  0
 30 68  1  0  0  0  0
 30 69  1  0  0  0  0
 31 70  1  0  0  0  0
 33 38  1  0  0  0  0
 33 71  1  0  0  0  0
 33 72  1  0  0  0  0
 35 36  2  0  0  0  0
 35 73  1  0  0  0  0
 36 37  1  0  0  0  0
 36 74  1  0  0  0  0
 37 39  1  0  0  0  0
 37 75  1  0  0  0  0
 37 76  1  0  0  0  0
 38 77  1  0  0  0  0
 38 78  1  0  0  0  0
 38 79  1  0  0  0  0
 39 40  1  0  0  0  0
 39 80  1  0  0  0  0
 39 81  1  0  0  0  0
 40 41  1  0  0  0  0
 40 82  1  0  0  0  0
 40 83  1  0  0  0  0
M  END
> <ConfClashScore>
0 

> <ConfOneFourInteractionScore>
-0.976543 

> <ConfScore>
-0.180521 

> <ConfScorePBest>
0.00749207 

> <ConfTolerance>
1.68559 

$$$$
9548876
  PyMOL2.2          3D                             0

 83 83  0  0  0  0  0  0  0  0999 V2000
   -5.0146   -1.0441   -0.1141 H   0  0  0  1  0  0  0  0  0  0  0  0
   -2.1855    3.4375   -0.4419 H   0  0  0  1  0  0  0  0  0  0  0  0
   -3.3827    3.6350    0.8151 H   0  0  0  1  0  0  0  0  0  0  0  0
   -3.1782    3.1842   -0.1335 C   0  0  0  1  0  0  0  0  0  0  0  0
   -3.8791    3.5431   -0.8580 H   0  0  0  1  0  0  0  0  0  0  0  0
  -10.9415    3.1630   -0.6316 N   0  0  0  1  0  0  0  0  0  0  0  0
  -11.0276    6.0054    2.3633 C   0  0  0  1  0  0  0  0  0  0  0  0
  -11.3887    6.5654    3.7253 C   0  0  0  1  0  0  0  0  0  0  0  0
  -11.3625    6.5793    1.3278 O   0  0  0  1  0  0  0  0  0  0  0  0
  -11.6717    2.1805   -1.4185 C   0  0  0  1  0  0  0  0  0  0  0  0
    1.6830    2.0188   -0.2817 O   0  0  0  1  0  0  0  0  0  0  0  0
  -11.1163    2.2628    1.4289 O   0  0  0  1  0  0  0  0  0  0  0  0
  -10.3294    4.8597    2.3705 N   0  0  0  1  0  0  0  0  0  0  0  0
   -7.7281   -4.5093    2.9484 O   0  5  0  1  0  0  0  0  0  0  0  0
   -4.4788    1.0480   -0.2058 N   0  0  0  1  0  0  0  0  0  0  0  0
   -7.0700   -2.4482    2.1990 O   0  0  0  1  0  0  0  0  0  0  0  0
   -7.6874    3.0530    0.2763 C   0  0  0  1  0  0  0  0  0  0  0  0
   -8.3758    3.6447    1.4967 C   0  0  0  1  0  0  0  0  0  0  0  0
   -2.3305    0.7568    0.2843 C   0  0  0  1  0  0  0  0  0  0  0  0
   -6.4026    2.3443    0.6732 C   0  0  0  1  0  0  0  0  0  0  0  0
   -2.9553   -0.4988    0.2751 C   0  0  0  1  0  0  0  0  0  0  0  0
    1.0566    4.1627    0.5260 C   0  0  0  1  0  0  0  0  0  0  0  0
   -9.7612    4.2229    1.1918 C   0  0  0  1  0  0  0  0  0  0  0  0
   -5.7252    1.7363   -0.5431 C   0  0  0  1  0  0  0  0  0  0  0  0
   -2.2402   -1.7987    0.5587 C   0  0  0  1  0  0  0  0  0  0  0  0
  -10.6972    3.1313    0.6815 C   0  0  0  1  0  0  0  0  0  0  0  0
    0.9485    2.6497    0.7433 C   0  0  0  1  0  0  0  0  0  0  0  0
    0.7106    4.5942   -0.8889 C   0  0  0  1  0  0  0  0  0  0  0  0
   -0.9156    1.0087    0.5610 C   0  0  0  1  0  0  0  0  0  0  0  0
    0.6399    6.1040   -1.0586 C   0  0  0  1  0  0  0  0  0  0  0  0
   -0.4872    2.2312    0.7672 C   0  0  0  1  0  0  0  0  0  0  0  0
   -3.3000    1.7038   -0.0161 C   0  0  0  1  0  0  0  0  0  0  0  0
    0.0309    6.5336   -2.3833 C   0  0  0  1  0  0  0  0  0  0  0  0
   -4.2882   -0.3045   -0.0310 C   0  0  0  1  0  0  0  0  0  0  0  0
   -1.5231   -1.7027    1.8653 C   0  0  0  1  0  0  0  0  0  0  0  0
   -1.9442   -2.2879    2.9611 C   0  0  0  1  0  0  0  0  0  0  0  0
   -2.9881   -3.3713    3.0116 C   0  0  0  1  0  0  0  0  0  0  0  0
   -0.1423    8.0429   -2.4324 C   0  0  0  1  0  0  0  0  0  0  0  0
   -4.4025   -2.8472    2.8005 C   0  0  0  1  0  0  0  0  0  0  0  0
   -5.4254   -3.9459    3.0394 C   0  0  0  1  0  0  0  0  0  0  0  0
   -6.8131   -3.5395    2.6801 C   0  0  0  1  0  0  0  0  0  0  0  0
  -10.5888    3.9357   -1.1204 H   0  0  0  1  0  0  0  0  0  0  0  0
  -10.8247    7.4565    3.9061 H   0  0  0  1  0  0  0  0  0  0  0  0
  -11.1625    5.8412    4.4798 H   0  0  0  1  0  0  0  0  0  0  0  0
  -12.4338    6.7936    3.7512 H   0  0  0  1  0  0  0  0  0  0  0  0
  -10.9808    1.5907   -1.9840 H   0  0  0  1  0  0  0  0  0  0  0  0
  -12.3401    2.6836   -2.0856 H   0  0  0  1  0  0  0  0  0  0  0  0
  -12.2312    1.5446   -0.7646 H   0  0  0  1  0  0  0  0  0  0  0  0
    1.2125    2.1068   -1.1138 H   0  0  0  1  0  0  0  0  0  0  0  0
  -10.1916    4.4185    3.2347 H   0  0  0  1  0  0  0  0  0  0  0  0
   -7.4563    3.8391   -0.4117 H   0  0  0  1  0  0  0  0  0  0  0  0
   -8.3453    2.3507   -0.1915 H   0  0  0  1  0  0  0  0  0  0  0  0
   -7.7599    4.4276    1.8873 H   0  0  0  1  0  0  0  0  0  0  0  0
   -8.4839    2.8748    2.2319 H   0  0  0  1  0  0  0  0  0  0  0  0
   -6.6321    1.5672    1.3721 H   0  0  0  1  0  0  0  0  0  0  0  0
   -5.7391    3.0496    1.1284 H   0  0  0  1  0  0  0  0  0  0  0  0
    2.0613    4.4648    0.7366 H   0  0  0  1  0  0  0  0  0  0  0  0
    0.3874    4.6514    1.2030 H   0  0  0  1  0  0  0  0  0  0  0  0
   -9.6517    4.9547    0.4189 H   0  0  0  1  0  0  0  0  0  0  0  0
   -6.3946    1.0328   -0.9925 H   0  0  0  1  0  0  0  0  0  0  0  0
   -5.5073    2.5179   -1.2407 H   0  0  0  1  0  0  0  0  0  0  0  0
   -1.5340   -1.9937   -0.2212 H   0  0  0  1  0  0  0  0  0  0  0  0
   -2.9535   -2.5950    0.6020 H   0  0  0  1  0  0  0  0  0  0  0  0
    1.3819    2.4183    1.6938 H   0  0  0  1  0  0  0  0  0  0  0  0
   -0.2412    4.1789   -1.1470 H   0  0  0  1  0  0  0  0  0  0  0  0
    1.4584    4.2129   -1.5524 H   0  0  0  1  0  0  0  0  0  0  0  0
   -0.2459    0.2137    0.5944 H   0  0  0  1  0  0  0  0  0  0  0  0
    1.6324    6.4991   -0.9976 H   0  0  0  1  0  0  0  0  0  0  0  0
    0.0456    6.5071   -0.2654 H   0  0  0  1  0  0  0  0  0  0  0  0
   -1.1990    2.9641    0.9619 H   0  0  0  1  0  0  0  0  0  0  0  0
   -0.9251    6.0669   -2.4978 H   0  0  0  1  0  0  0  0  0  0  0  0
    0.6752    6.2283   -3.1812 H   0  0  0  1  0  0  0  0  0  0  0  0
   -0.6467   -1.1444    1.9084 H   0  0  0  1  0  0  0  0  0  0  0  0
   -1.5257   -1.9804    3.8621 H   0  0  0  1  0  0  0  0  0  0  0  0
   -2.9402   -3.8459    3.9694 H   0  0  0  1  0  0  0  0  0  0  0  0
   -2.7726   -4.0878    2.2467 H   0  0  0  1  0  0  0  0  0  0  0  0
   -0.6581    8.3143   -3.3298 H   0  0  0  1  0  0  0  0  0  0  0  0
    0.8190    8.5126   -2.4180 H   0  0  0  1  0  0  0  0  0  0  0  0
   -0.7096    8.3644   -1.5841 H   0  0  0  1  0  0  0  0  0  0  0  0
   -4.4984   -2.4909    1.7962 H   0  0  0  1  0  0  0  0  0  0  0  0
   -4.5846   -2.0439    3.4834 H   0  0  0  1  0  0  0  0  0  0  0  0
   -5.4054   -4.2103    4.0760 H   0  0  0  1  0  0  0  0  0  0  0  0
   -5.1558   -4.7964    2.4486 H   0  0  0  1  0  0  0  0  0  0  0  0
  1 34  1  0  0  0  0
  2  4  1  0  0  0  0
  3  4  1  0  0  0  0
  4  5  1  0  0  0  0
  4 32  1  0  0  0  0
  6 10  1  0  0  0  0
  6 26  1  0  0  0  0
  6 42  1  0  0  0  0
  7  8  1  0  0  0  0
  7  9  2  0  0  0  0
  7 13  1  0  0  0  0
  8 43  1  0  0  0  0
  8 44  1  0  0  0  0
  8 45  1  0  0  0  0
 10 46  1  0  0  0  0
 10 47  1  0  0  0  0
 10 48  1  0  0  0  0
 11 27  1  0  0  0  0
 11 49  1  0  0  0  0
 12 26  2  0  0  0  0
 13 23  1  0  0  0  0
 13 50  1  0  0  0  0
 14 41  1  0  0  0  0
 15 24  1  0  0  0  0
 15 32  4  0  0  0  0
 15 34  4  0  0  0  0
 16 41  2  0  0  0  0
 17 18  1  0  0  0  0
 17 20  1  0  0  0  0
 17 51  1  0  0  0  0
 17 52  1  0  0  0  0
 18 23  1  0  0  0  0
 18 53  1  0  0  0  0
 18 54  1  0  0  0  0
 19 21  4  0  0  0  0
 19 29  1  0  0  0  0
 19 32  4  0  0  0  0
 20 24  1  0  0  0  0
 20 55  1  0  0  0  0
 20 56  1  0  0  0  0
 21 25  1  0  0  0  0
 21 34  4  0  0  0  0
 22 27  1  0  0  0  0
 22 28  1  0  0  0  0
 22 57  1  0  0  0  0
 22 58  1  0  0  0  0
 23 26  1  0  0  0  0
 23 59  1  0  0  0  0
 24 60  1  0  0  0  0
 24 61  1  0  0  0  0
 25 35  1  0  0  0  0
 25 62  1  0  0  0  0
 25 63  1  0  0  0  0
 27 31  1  0  0  0  0
 27 64  1  0  0  0  0
 28 30  1  0  0  0  0
 28 65  1  0  0  0  0
 28 66  1  0  0  0  0
 29 31  2  0  0  0  0
 29 67  1  0  0  0  0
 30 33  1  0  0  0  0
 30 68  1  0  0  0  0
 30 69  1  0  0  0  0
 31 70  1  0  0  0  0
 33 38  1  0  0  0  0
 33 71  1  0  0  0  0
 33 72  1  0  0  0  0
 35 36  2  0  0  0  0
 35 73  1  0  0  0  0
 36 37  1  0  0  0  0
 36 74  1  0  0  0  0
 37 39  1  0  0  0  0
 37 75  1  0  0  0  0
 37 76  1  0  0  0  0
 38 77  1  0  0  0  0
 38 78  1  0  0  0  0
 38 79  1  0  0  0  0
 39 40  1  0  0  0  0
 39 80  1  0  0  0  0
 39 81  1  0  0  0  0
 40 41  1  0  0  0  0
 40 82  1  0  0  0  0
 40 83  1  0  0  0  0
M  END
> <ConfClashScore>
0 

> <ConfOneFourInteractionScore>
-0.991046 

> <ConfScore>
-0.1804 

> <ConfScorePBest>
0.00746359 

> <ConfTolerance>
1.76253 

$$$$
9548876
  PyMOL2.2          3D                             0

 83 83  0  0  0  0  0  0  0  0999 V2000
   -5.0027   -1.0523   -0.0778 H   0  0  0  1  0  0  0  0  0  0  0  0
   -3.9277    3.6799    0.4370 H   0  0  0  1  0  0  0  0  0  0  0  0
   -3.2054    3.4801   -1.1413 H   0  0  0  1  0  0  0  0  0  0  0  0
   -3.1506    3.1909   -0.1126 C   0  0  0  1  0  0  0  0  0  0  0  0
   -2.1993    3.4730    0.2876 H   0  0  0  1  0  0  0  0  0  0  0  0
  -11.6184    4.8899    2.2599 N   0  0  0  1  0  0  0  0  0  0  0  0
  -10.9755    5.0958   -0.8402 C   0  0  0  1  0  0  0  0  0  0  0  0
  -10.5512    6.3090   -1.6448 C   0  0  0  1  0  0  0  0  0  0  0  0
  -12.0529    4.5384   -1.0456 O   0  0  0  1  0  0  0  0  0  0  0  0
  -12.6751    5.2696    3.1856 C   0  0  0  1  0  0  0  0  0  0  0  0
    2.2547    0.6405    1.2715 O   0  0  0  1  0  0  0  0  0  0  0  0
  -11.5652    2.6812    2.7133 O   0  0  0  1  0  0  0  0  0  0  0  0
  -10.1054    4.6827    0.0949 N   0  0  0  1  0  0  0  0  0  0  0  0
    2.5129   -3.7262   -4.5039 O   0  5  0  1  0  0  0  0  0  0  0  0
   -4.4903    1.0452   -0.1808 N   0  0  0  1  0  0  0  0  0  0  0  0
    1.5821   -5.4386   -3.3308 O   0  0  0  1  0  0  0  0  0  0  0  0
   -7.9987    2.5233    0.1157 C   0  0  0  1  0  0  0  0  0  0  0  0
   -8.8942    2.8600    1.2925 C   0  0  0  1  0  0  0  0  0  0  0  0
   -2.3351    0.7789    0.2932 C   0  0  0  1  0  0  0  0  0  0  0  0
   -6.6550    1.9419    0.5275 C   0  0  0  1  0  0  0  0  0  0  0  0
   -2.9464   -0.4834    0.2932 C   0  0  0  1  0  0  0  0  0  0  0  0
    2.1897    0.5437   -1.1740 C   0  0  0  1  0  0  0  0  0  0  0  0
  -10.2406    3.4637    0.8783 C   0  0  0  1  0  0  0  0  0  0  0  0
   -5.7530    1.6153   -0.6516 C   0  0  0  1  0  0  0  0  0  0  0  0
   -2.3194   -1.8316    0.5594 C   0  0  0  1  0  0  0  0  0  0  0  0
  -11.1880    3.6408    2.0612 C   0  0  0  1  0  0  0  0  0  0  0  0
    1.5052    0.9795    0.1225 C   0  0  0  1  0  0  0  0  0  0  0  0
    1.3210    0.7311   -2.4062 C   0  0  0  1  0  0  0  0  0  0  0  0
   -0.9432    1.1017    0.4497 C   0  0  0  1  0  0  0  0  0  0  0  0
    1.8594    0.0190   -3.6376 C   0  0  0  1  0  0  0  0  0  0  0  0
    0.1362    0.3886    0.2092 C   0  0  0  1  0  0  0  0  0  0  0  0
   -3.3172    1.7143   -0.0025 C   0  0  0  1  0  0  0  0  0  0  0  0
    0.9098    0.1819   -4.8121 C   0  0  0  1  0  0  0  0  0  0  0  0
   -4.2837   -0.3046   -0.0029 C   0  0  0  1  0  0  0  0  0  0  0  0
   -3.0590   -2.9427   -0.1156 C   0  0  0  1  0  0  0  0  0  0  0  0
   -2.8176   -3.4460   -1.3002 C   0  0  0  1  0  0  0  0  0  0  0  0
   -1.7664   -2.9422   -2.2506 C   0  0  0  1  0  0  0  0  0  0  0  0
    1.5307   -0.1986   -6.1463 C   0  0  0  1  0  0  0  0  0  0  0  0
   -0.5748   -3.8640   -2.4523 C   0  0  0  1  0  0  0  0  0  0  0  0
    0.4428   -3.3251   -3.4446 C   0  0  0  1  0  0  0  0  0  0  0  0
    1.5436   -4.2872   -3.7322 C   0  0  0  1  0  0  0  0  0  0  0  0
  -11.1903    5.6042    1.7433 H   0  0  0  1  0  0  0  0  0  0  0  0
   -9.8170    6.0195   -2.3673 H   0  0  0  1  0  0  0  0  0  0  0  0
  -10.1347    7.0441   -0.9883 H   0  0  0  1  0  0  0  0  0  0  0  0
  -11.4025    6.7195   -2.1465 H   0  0  0  1  0  0  0  0  0  0  0  0
  -13.4963    5.6846    2.6395 H   0  0  0  1  0  0  0  0  0  0  0  0
  -12.3008    5.9978    3.8745 H   0  0  0  1  0  0  0  0  0  0  0  0
  -13.0052    4.4055    3.7235 H   0  0  0  1  0  0  0  0  0  0  0  0
    1.8859    1.0861    2.0377 H   0  0  0  1  0  0  0  0  0  0  0  0
   -9.3200    5.2443    0.2626 H   0  0  0  1  0  0  0  0  0  0  0  0
   -7.8239    3.4181   -0.4444 H   0  0  0  1  0  0  0  0  0  0  0  0
   -8.5030    1.8088   -0.5008 H   0  0  0  1  0  0  0  0  0  0  0  0
   -8.3843    3.5640    1.9164 H   0  0  0  1  0  0  0  0  0  0  0  0
   -9.0804    1.9626    1.8447 H   0  0  0  1  0  0  0  0  0  0  0  0
   -6.8295    1.0426    1.0804 H   0  0  0  1  0  0  0  0  0  0  0  0
   -6.1543    2.6530    1.1509 H   0  0  0  1  0  0  0  0  0  0  0  0
    2.4432   -0.4926   -1.0921 H   0  0  0  1  0  0  0  0  0  0  0  0
    3.0821    1.1210   -1.2972 H   0  0  0  1  0  0  0  0  0  0  0  0
  -10.7012    2.7386    0.2404 H   0  0  0  1  0  0  0  0  0  0  0  0
   -6.2444    0.9084   -1.2869 H   0  0  0  1  0  0  0  0  0  0  0  0
   -5.5526    2.5110   -1.2016 H   0  0  0  1  0  0  0  0  0  0  0  0
   -2.3195   -2.0091    1.6146 H   0  0  0  1  0  0  0  0  0  0  0  0
   -1.3119   -1.8199    0.1992 H   0  0  0  1  0  0  0  0  0  0  0  0
    1.3952    2.0431    0.0834 H   0  0  0  1  0  0  0  0  0  0  0  0
    1.2570    1.7775   -2.6202 H   0  0  0  1  0  0  0  0  0  0  0  0
    0.3441    0.3496   -2.1937 H   0  0  0  1  0  0  0  0  0  0  0  0
   -0.7584    2.0583    0.8137 H   0  0  0  1  0  0  0  0  0  0  0  0
    1.9722   -1.0224   -3.4194 H   0  0  0  1  0  0  0  0  0  0  0  0
    2.8109    0.4350   -3.8954 H   0  0  0  1  0  0  0  0  0  0  0  0
    0.0309   -0.6370    0.0727 H   0  0  0  1  0  0  0  0  0  0  0  0
    0.6026    1.2057   -4.8606 H   0  0  0  1  0  0  0  0  0  0  0  0
    0.0550   -0.4399   -4.6461 H   0  0  0  1  0  0  0  0  0  0  0  0
   -3.8508   -3.3610    0.4132 H   0  0  0  1  0  0  0  0  0  0  0  0
   -3.3958   -4.2543   -1.6067 H   0  0  0  1  0  0  0  0  0  0  0  0
   -1.4019   -2.0089   -1.8752 H   0  0  0  1  0  0  0  0  0  0  0  0
   -2.2292   -2.7878   -3.2030 H   0  0  0  1  0  0  0  0  0  0  0  0
    1.1328    0.4278   -6.9171 H   0  0  0  1  0  0  0  0  0  0  0  0
    1.3046   -1.2212   -6.3659 H   0  0  0  1  0  0  0  0  0  0  0  0
    2.5918   -0.0705   -6.0951 H   0  0  0  1  0  0  0  0  0  0  0  0
   -0.9320   -4.8067   -2.8110 H   0  0  0  1  0  0  0  0  0  0  0  0
   -0.0889   -4.0016   -1.5090 H   0  0  0  1  0  0  0  0  0  0  0  0
    0.8692   -2.4298   -3.0427 H   0  0  0  1  0  0  0  0  0  0  0  0
   -0.0614   -3.1005   -4.3612 H   0  0  0  1  0  0  0  0  0  0  0  0
  1 34  1  0  0  0  0
  2  4  1  0  0  0  0
  3  4  1  0  0  0  0
  4  5  1  0  0  0  0
  4 32  1  0  0  0  0
  6 10  1  0  0  0  0
  6 26  1  0  0  0  0
  6 42  1  0  0  0  0
  7  8  1  0  0  0  0
  7  9  2  0  0  0  0
  7 13  1  0  0  0  0
  8 43  1  0  0  0  0
  8 44  1  0  0  0  0
  8 45  1  0  0  0  0
 10 46  1  0  0  0  0
 10 47  1  0  0  0  0
 10 48  1  0  0  0  0
 11 27  1  0  0  0  0
 11 49  1  0  0  0  0
 12 26  2  0  0  0  0
 13 23  1  0  0  0  0
 13 50  1  0  0  0  0
 14 41  1  0  0  0  0
 15 24  1  0  0  0  0
 15 32  4  0  0  0  0
 15 34  4  0  0  0  0
 16 41  2  0  0  0  0
 17 18  1  0  0  0  0
 17 20  1  0  0  0  0
 17 51  1  0  0  0  0
 17 52  1  0  0  0  0
 18 23  1  0  0  0  0
 18 53  1  0  0  0  0
 18 54  1  0  0  0  0
 19 21  4  0  0  0  0
 19 29  1  0  0  0  0
 19 32  4  0  0  0  0
 20 24  1  0  0  0  0
 20 55  1  0  0  0  0
 20 56  1  0  0  0  0
 21 25  1  0  0  0  0
 21 34  4  0  0  0  0
 22 27  1  0  0  0  0
 22 28  1  0  0  0  0
 22 57  1  0  0  0  0
 22 58  1  0  0  0  0
 23 26  1  0  0  0  0
 23 59  1  0  0  0  0
 24 60  1  0  0  0  0
 24 61  1  0  0  0  0
 25 35  1  0  0  0  0
 25 62  1  0  0  0  0
 25 63  1  0  0  0  0
 27 31  1  0  0  0  0
 27 64  1  0  0  0  0
 28 30  1  0  0  0  0
 28 65  1  0  0  0  0
 28 66  1  0  0  0  0
 29 31  2  0  0  0  0
 29 67  1  0  0  0  0
 30 33  1  0  0  0  0
 30 68  1  0  0  0  0
 30 69  1  0  0  0  0
 31 70  1  0  0  0  0
 33 38  1  0  0  0  0
 33 71  1  0  0  0  0
 33 72  1  0  0  0  0
 35 36  2  0  0  0  0
 35 73  1  0  0  0  0
 36 37  1  0  0  0  0
 36 74  1  0  0  0  0
 37 39  1  0  0  0  0
 37 75  1  0  0  0  0
 37 76  1  0  0  0  0
 38 77  1  0  0  0  0
 38 78  1  0  0  0  0
 38 79  1  0  0  0  0
 39 40  1  0  0  0  0
 39 80  1  0  0  0  0
 39 81  1  0  0  0  0
 40 41  1  0  0  0  0
 40 82  1  0  0  0  0
 40 83  1  0  0  0  0
M  END
> <ConfClashScore>
0 

> <ConfOneFourInteractionScore>
-0.983638 

> <ConfScore>
-0.172877 

> <ConfScorePBest>
0.0074351 

> <ConfTolerance>
1.67922 

$$$$
9548876
  PyMOL2.2          3D                             0

 83 83  0  0  0  0  0  0  0  0999 V2000
   -5.0095   -1.0152   -0.1148 H   0  0  0  1  0  0  0  0  0  0  0  0
   -2.5734    3.4516   -0.9778 H   0  0  0  1  0  0  0  0  0  0  0  0
   -2.7567    3.6090    0.7525 H   0  0  0  1  0  0  0  0  0  0  0  0
   -3.1860    3.1990   -0.1377 C   0  0  0  1  0  0  0  0  0  0  0  0
   -4.1676    3.6009   -0.2787 H   0  0  0  1  0  0  0  0  0  0  0  0
  -10.2630    1.8299   -6.1150 N   0  0  0  1  0  0  0  0  0  0  0  0
  -11.5583    2.2496   -3.4442 C   0  0  0  1  0  0  0  0  0  0  0  0
  -12.5120    1.3110   -2.7310 C   0  0  0  1  0  0  0  0  0  0  0  0
  -11.9599    3.2812   -3.9811 O   0  0  0  1  0  0  0  0  0  0  0  0
  -10.6656    1.8275   -7.5135 C   0  0  0  1  0  0  0  0  0  0  0  0
    1.9833    2.5800   -0.6510 O   0  0  0  1  0  0  0  0  0  0  0  0
   -9.0470    3.7252   -6.2403 O   0  0  0  1  0  0  0  0  0  0  0  0
  -10.2681    1.8789   -3.4466 N   0  0  0  1  0  0  0  0  0  0  0  0
   -4.9508   -5.7495    3.2213 O   0  5  0  1  0  0  0  0  0  0  0  0
   -4.4545    1.0720   -0.2030 N   0  0  0  1  0  0  0  0  0  0  0  0
   -4.8919   -3.7603    2.0890 O   0  0  0  1  0  0  0  0  0  0  0  0
   -7.4530    2.2318   -2.3229 C   0  0  0  1  0  0  0  0  0  0  0  0
   -7.8218    2.1529   -3.7963 C   0  0  0  1  0  0  0  0  0  0  0  0
   -2.3094    0.7605    0.2888 C   0  0  0  1  0  0  0  0  0  0  0  0
   -6.0932    1.6314   -2.0094 C   0  0  0  1  0  0  0  0  0  0  0  0
   -2.9457   -0.4893    0.2773 C   0  0  0  1  0  0  0  0  0  0  0  0
    0.9456    3.8979    1.0409 C   0  0  0  1  0  0  0  0  0  0  0  0
   -9.2310    2.6711   -4.0980 C   0  0  0  1  0  0  0  0  0  0  0  0
   -5.7462    1.6703   -0.5417 C   0  0  0  1  0  0  0  0  0  0  0  0
   -2.2931   -1.8236    0.5517 C   0  0  0  1  0  0  0  0  0  0  0  0
   -9.4812    2.7825   -5.5990 C   0  0  0  1  0  0  0  0  0  0  0  0
    1.0968    2.4906    0.4537 C   0  0  0  1  0  0  0  0  0  0  0  0
    0.0596    4.7572    0.1572 C   0  0  0  1  0  0  0  0  0  0  0  0
   -0.8852    0.9376    0.5751 C   0  0  0  1  0  0  0  0  0  0  0  0
    0.0423    6.2210    0.5635 C   0  0  0  1  0  0  0  0  0  0  0  0
   -0.2378    1.9415    0.0786 C   0  0  0  1  0  0  0  0  0  0  0  0
   -3.2700    1.7168   -0.0111 C   0  0  0  1  0  0  0  0  0  0  0  0
   -0.8370    7.0827   -0.3266 C   0  0  0  1  0  0  0  0  0  0  0  0
   -4.2765   -0.2824   -0.0299 C   0  0  0  1  0  0  0  0  0  0  0  0
   -1.8757   -2.5739   -0.6704 C   0  0  0  1  0  0  0  0  0  0  0  0
   -2.2566   -3.8031   -0.9243 C   0  0  0  1  0  0  0  0  0  0  0  0
   -2.8783   -4.7364    0.0799 C   0  0  0  1  0  0  0  0  0  0  0  0
   -2.2498    6.5304   -0.3840 C   0  0  0  1  0  0  0  0  0  0  0  0
   -4.3025   -5.1002   -0.3289 C   0  0  0  1  0  0  0  0  0  0  0  0
   -4.9800   -5.7875    0.8494 C   0  0  0  1  0  0  0  0  0  0  0  0
   -4.9360   -4.9794    2.1004 C   0  0  0  1  0  0  0  0  0  0  0  0
  -10.5763    1.1076   -5.5315 H   0  0  0  1  0  0  0  0  0  0  0  0
  -12.2900    0.3006   -3.0045 H   0  0  0  1  0  0  0  0  0  0  0  0
  -13.5179    1.5436   -3.0123 H   0  0  0  1  0  0  0  0  0  0  0  0
  -12.4012    1.4265   -1.6731 H   0  0  0  1  0  0  0  0  0  0  0  0
  -10.8092    0.8194   -7.8422 H   0  0  0  1  0  0  0  0  0  0  0  0
   -9.9030    2.2899   -8.1047 H   0  0  0  1  0  0  0  0  0  0  0  0
  -11.5806    2.3715   -7.6220 H   0  0  0  1  0  0  0  0  0  0  0  0
    2.1388    3.5033   -0.8631 H   0  0  0  1  0  0  0  0  0  0  0  0
  -10.0141    1.0471   -2.9949 H   0  0  0  1  0  0  0  0  0  0  0  0
   -8.1945    1.7054   -1.7589 H   0  0  0  1  0  0  0  0  0  0  0  0
   -7.4453    3.2609   -2.0297 H   0  0  0  1  0  0  0  0  0  0  0  0
   -7.7627    1.1306   -4.1066 H   0  0  0  1  0  0  0  0  0  0  0  0
   -7.1192    2.7366   -4.3536 H   0  0  0  1  0  0  0  0  0  0  0  0
   -5.3484    2.1785   -2.5487 H   0  0  0  1  0  0  0  0  0  0  0  0
   -6.0904    0.6111   -2.3317 H   0  0  0  1  0  0  0  0  0  0  0  0
    1.9115    4.3520    1.1167 H   0  0  0  1  0  0  0  0  0  0  0  0
    0.5070    3.8267    2.0142 H   0  0  0  1  0  0  0  0  0  0  0  0
   -9.2854    3.6633   -3.7014 H   0  0  0  1  0  0  0  0  0  0  0  0
   -5.7314    2.6937   -0.2298 H   0  0  0  1  0  0  0  0  0  0  0  0
   -6.5080    1.1443   -0.0051 H   0  0  0  1  0  0  0  0  0  0  0  0
   -2.9882   -2.4297    1.0943 H   0  0  0  1  0  0  0  0  0  0  0  0
   -1.4238   -1.6528    1.1516 H   0  0  0  1  0  0  0  0  0  0  0  0
    1.5214    1.8592    1.2060 H   0  0  0  1  0  0  0  0  0  0  0  0
   -0.9400    4.3790    0.2089 H   0  0  0  1  0  0  0  0  0  0  0  0
    0.4158    4.6887   -0.8494 H   0  0  0  1  0  0  0  0  0  0  0  0
   -0.3906    0.2523    1.1812 H   0  0  0  1  0  0  0  0  0  0  0  0
    1.0429    6.5974    0.5184 H   0  0  0  1  0  0  0  0  0  0  0  0
   -0.3204    6.2901    1.5677 H   0  0  0  1  0  0  0  0  0  0  0  0
   -0.7195    2.4393   -0.6971 H   0  0  0  1  0  0  0  0  0  0  0  0
   -0.4265    7.0996   -1.3146 H   0  0  0  1  0  0  0  0  0  0  0  0
   -0.8650    8.0778    0.0656 H   0  0  0  1  0  0  0  0  0  0  0  0
   -1.2523   -2.0984   -1.3536 H   0  0  0  1  0  0  0  0  0  0  0  0
   -2.1189   -4.1595   -1.8916 H   0  0  0  1  0  0  0  0  0  0  0  0
   -2.8993   -4.2584    1.0370 H   0  0  0  1  0  0  0  0  0  0  0  0
   -2.2915   -5.6291    0.1394 H   0  0  0  1  0  0  0  0  0  0  0  0
   -2.6879    6.5680    0.5915 H   0  0  0  1  0  0  0  0  0  0  0  0
   -2.2224    5.5160   -0.7235 H   0  0  0  1  0  0  0  0  0  0  0  0
   -2.8349    7.1178   -1.0604 H   0  0  0  1  0  0  0  0  0  0  0  0
   -4.2792   -5.7627   -1.1689 H   0  0  0  1  0  0  0  0  0  0  0  0
   -4.8417   -4.2132   -0.5885 H   0  0  0  1  0  0  0  0  0  0  0  0
   -4.4873   -6.7202    1.0289 H   0  0  0  1  0  0  0  0  0  0  0  0
   -6.0039   -5.9674    0.5960 H   0  0  0  1  0  0  0  0  0  0  0  0
  1 34  1  0  0  0  0
  2  4  1  0  0  0  0
  3  4  1  0  0  0  0
  4  5  1  0  0  0  0
  4 32  1  0  0  0  0
  6 10  1  0  0  0  0
  6 26  1  0  0  0  0
  6 42  1  0  0  0  0
  7  8  1  0  0  0  0
  7  9  2  0  0  0  0
  7 13  1  0  0  0  0
  8 43  1  0  0  0  0
  8 44  1  0  0  0  0
  8 45  1  0  0  0  0
 10 46  1  0  0  0  0
 10 47  1  0  0  0  0
 10 48  1  0  0  0  0
 11 27  1  0  0  0  0
 11 49  1  0  0  0  0
 12 26  2  0  0  0  0
 13 23  1  0  0  0  0
 13 50  1  0  0  0  0
 14 41  1  0  0  0  0
 15 24  1  0  0  0  0
 15 32  4  0  0  0  0
 15 34  4  0  0  0  0
 16 41  2  0  0  0  0
 17 18  1  0  0  0  0
 17 20  1  0  0  0  0
 17 51  1  0  0  0  0
 17 52  1  0  0  0  0
 18 23  1  0  0  0  0
 18 53  1  0  0  0  0
 18 54  1  0  0  0  0
 19 21  4  0  0  0  0
 19 29  1  0  0  0  0
 19 32  4  0  0  0  0
 20 24  1  0  0  0  0
 20 55  1  0  0  0  0
 20 56  1  0  0  0  0
 21 25  1  0  0  0  0
 21 34  4  0  0  0  0
 22 27  1  0  0  0  0
 22 28  1  0  0  0  0
 22 57  1  0  0  0  0
 22 58  1  0  0  0  0
 23 26  1  0  0  0  0
 23 59  1  0  0  0  0
 24 60  1  0  0  0  0
 24 61  1  0  0  0  0
 25 35  1  0  0  0  0
 25 62  1  0  0  0  0
 25 63  1  0  0  0  0
 27 31  1  0  0  0  0
 27 64  1  0  0  0  0
 28 30  1  0  0  0  0
 28 65  1  0  0  0  0
 28 66  1  0  0  0  0
 29 31  2  0  0  0  0
 29 67  1  0  0  0  0
 30 33  1  0  0  0  0
 30 68  1  0  0  0  0
 30 69  1  0  0  0  0
 31 70  1  0  0  0  0
 33 38  1  0  0  0  0
 33 71  1  0  0  0  0
 33 72  1  0  0  0  0
 35 36  2  0  0  0  0
 35 73  1  0  0  0  0
 36 37  1  0  0  0  0
 36 74  1  0  0  0  0
 37 39  1  0  0  0  0
 37 75  1  0  0  0  0
 37 76  1  0  0  0  0
 38 77  1  0  0  0  0
 38 78  1  0  0  0  0
 38 79  1  0  0  0  0
 39 40  1  0  0  0  0
 39 80  1  0  0  0  0
 39 81  1  0  0  0  0
 40 41  1  0  0  0  0
 40 82  1  0  0  0  0
 40 83  1  0  0  0  0
M  END
> <ConfClashScore>
0 

> <ConfOneFourInteractionScore>
-0.982895 

> <ConfScore>
-0.166677 

> <ConfScorePBest>
0.00740662 

> <ConfTolerance>
1.83629 

$$$$
9548876
  PyMOL2.2          3D                             0

 83 83  0  0  0  0  0  0  0  0999 V2000
   -5.0112   -1.0369   -0.1410 H   0  0  0  1  0  0  0  0  0  0  0  0
   -2.1718    3.4152   -0.4678 H   0  0  0  1  0  0  0  0  0  0  0  0
   -3.3605    3.6675    0.7876 H   0  0  0  1  0  0  0  0  0  0  0  0
   -3.1642    3.1797   -0.1443 C   0  0  0  1  0  0  0  0  0  0  0  0
   -3.8672    3.5148   -0.8780 H   0  0  0  1  0  0  0  0  0  0  0  0
  -11.8073    0.8397   -1.1510 N   0  0  0  1  0  0  0  0  0  0  0  0
  -11.6675    4.1521    0.1606 C   0  0  0  1  0  0  0  0  0  0  0  0
  -12.4430    4.6186    1.3955 C   0  0  0  1  0  0  0  0  0  0  0  0
  -11.8570    4.6876   -0.9307 O   0  0  0  1  0  0  0  0  0  0  0  0
  -12.7198   -0.0322   -1.8756 C   0  0  0  1  0  0  0  0  0  0  0  0
    1.7961    1.1523    0.6702 O   0  0  0  1  0  0  0  0  0  0  0  0
  -10.7694    1.7240   -2.9292 O   0  0  0  1  0  0  0  0  0  0  0  0
  -10.8586    3.0922    0.3111 N   0  0  0  1  0  0  0  0  0  0  0  0
   -0.1069   -8.7916   -0.8926 O   0  5  0  1  0  0  0  0  0  0  0  0
   -4.4724    1.0561   -0.1805 N   0  0  0  1  0  0  0  0  0  0  0  0
   -2.1518   -9.6535   -0.3924 O   0  0  0  1  0  0  0  0  0  0  0  0
   -7.8187    2.8081    0.3379 C   0  0  0  1  0  0  0  0  0  0  0  0
   -8.8180    1.8491   -0.2907 C   0  0  0  1  0  0  0  0  0  0  0  0
   -2.3267    0.7504    0.3125 C   0  0  0  1  0  0  0  0  0  0  0  0
   -6.5084    2.1440    0.7253 C   0  0  0  1  0  0  0  0  0  0  0  0
   -2.9531   -0.5037    0.2707 C   0  0  0  1  0  0  0  0  0  0  0  0
    1.7588    3.3076   -0.2269 C   0  0  0  1  0  0  0  0  0  0  0  0
  -10.0891    2.5396   -0.7921 C   0  0  0  1  0  0  0  0  0  0  0  0
   -5.7435    1.7021   -0.5092 C   0  0  0  1  0  0  0  0  0  0  0  0
   -2.2890   -1.8426    0.5184 C   0  0  0  1  0  0  0  0  0  0  0  0
  -10.9007    1.6397   -1.7192 C   0  0  0  1  0  0  0  0  0  0  0  0
    1.1396    2.4047    0.8341 C   0  0  0  1  0  0  0  0  0  0  0  0
    3.2508    3.5227   -0.0385 C   0  0  0  1  0  0  0  0  0  0  0  0
   -0.9361    1.0995    0.5888 C   0  0  0  1  0  0  0  0  0  0  0  0
    3.8511    4.4955   -1.0418 C   0  0  0  1  0  0  0  0  0  0  0  0
   -0.3372    2.2920    0.6820 C   0  0  0  1  0  0  0  0  0  0  0  0
   -3.2937    1.7056    0.0303 C   0  0  0  1  0  0  0  0  0  0  0  0
    5.3599    4.6331   -0.9191 C   0  0  0  1  0  0  0  0  0  0  0  0
   -4.2843   -0.3005   -0.0369 C   0  0  0  1  0  0  0  0  0  0  0  0
   -1.7023   -2.4811   -0.7004 C   0  0  0  1  0  0  0  0  0  0  0  0
   -1.3998   -3.7289   -0.8577 C   0  0  0  1  0  0  0  0  0  0  0  0
   -1.8030   -4.9245   -0.0367 C   0  0  0  1  0  0  0  0  0  0  0  0
    5.9441    5.6984   -1.8324 C   0  0  0  1  0  0  0  0  0  0  0  0
   -1.4882   -6.2471   -0.7164 C   0  0  0  1  0  0  0  0  0  0  0  0
   -1.6242   -7.4018    0.2627 C   0  0  0  1  0  0  0  0  0  0  0  0
   -1.3564   -8.7290   -0.3593 C   0  0  0  1  0  0  0  0  0  0  0  0
  -11.8620    0.8400   -0.1725 H   0  0  0  1  0  0  0  0  0  0  0  0
  -13.0451    3.8145    1.7640 H   0  0  0  1  0  0  0  0  0  0  0  0
  -13.0722    5.4427    1.1309 H   0  0  0  1  0  0  0  0  0  0  0  0
  -11.7539    4.9248    2.1546 H   0  0  0  1  0  0  0  0  0  0  0  0
  -13.2654   -0.6353   -1.1802 H   0  0  0  1  0  0  0  0  0  0  0  0
  -12.1614   -0.6642   -2.5341 H   0  0  0  1  0  0  0  0  0  0  0  0
  -13.4035    0.5619   -2.4452 H   0  0  0  1  0  0  0  0  0  0  0  0
    2.5297    1.0921    1.2864 H   0  0  0  1  0  0  0  0  0  0  0  0
  -10.7838    2.6760    1.1951 H   0  0  0  1  0  0  0  0  0  0  0  0
   -8.2591    3.2284    1.2178 H   0  0  0  1  0  0  0  0  0  0  0  0
   -7.6092    3.5879   -0.3641 H   0  0  0  1  0  0  0  0  0  0  0  0
   -9.0945    1.1194    0.4415 H   0  0  0  1  0  0  0  0  0  0  0  0
   -8.3466    1.3629   -1.1192 H   0  0  0  1  0  0  0  0  0  0  0  0
   -6.7151    1.2891    1.3347 H   0  0  0  1  0  0  0  0  0  0  0  0
   -5.9119    2.8402    1.2771 H   0  0  0  1  0  0  0  0  0  0  0  0
    1.2713    4.2593   -0.1889 H   0  0  0  1  0  0  0  0  0  0  0  0
    1.5987    2.8623   -1.1866 H   0  0  0  1  0  0  0  0  0  0  0  0
   -9.7623    3.3651   -1.3894 H   0  0  0  1  0  0  0  0  0  0  0  0
   -6.3480    1.0102   -1.0577 H   0  0  0  1  0  0  0  0  0  0  0  0
   -5.5448    2.5613   -1.1152 H   0  0  0  1  0  0  0  0  0  0  0  0
   -3.0217   -2.5085    0.9241 H   0  0  0  1  0  0  0  0  0  0  0  0
   -1.5037   -1.6989    1.2307 H   0  0  0  1  0  0  0  0  0  0  0  0
    1.3574    2.8105    1.7999 H   0  0  0  1  0  0  0  0  0  0  0  0
    3.7454    2.5796   -0.1427 H   0  0  0  1  0  0  0  0  0  0  0  0
    3.4166    3.9061    0.9466 H   0  0  0  1  0  0  0  0  0  0  0  0
   -0.3063    0.2855    0.7379 H   0  0  0  1  0  0  0  0  0  0  0  0
    3.4091    5.4577   -0.8877 H   0  0  0  1  0  0  0  0  0  0  0  0
    3.6210    4.1506   -2.0282 H   0  0  0  1  0  0  0  0  0  0  0  0
   -0.9141    3.1567    0.6477 H   0  0  0  1  0  0  0  0  0  0  0  0
    5.8074    3.6928   -1.1651 H   0  0  0  1  0  0  0  0  0  0  0  0
    5.5962    4.8872    0.0931 H   0  0  0  1  0  0  0  0  0  0  0  0
   -1.5176   -1.8537   -1.5090 H   0  0  0  1  0  0  0  0  0  0  0  0
   -0.7873   -3.9370   -1.6721 H   0  0  0  1  0  0  0  0  0  0  0  0
   -2.8569   -4.8755    0.1415 H   0  0  0  1  0  0  0  0  0  0  0  0
   -1.2809   -4.8884    0.8966 H   0  0  0  1  0  0  0  0  0  0  0  0
    7.0016    5.7583   -1.6806 H   0  0  0  1  0  0  0  0  0  0  0  0
    5.4976    6.6445   -1.6076 H   0  0  0  1  0  0  0  0  0  0  0  0
    5.7444    5.4424   -2.8520 H   0  0  0  1  0  0  0  0  0  0  0  0
   -0.4858   -6.2199   -1.0898 H   0  0  0  1  0  0  0  0  0  0  0  0
   -2.1683   -6.3944   -1.5293 H   0  0  0  1  0  0  0  0  0  0  0  0
   -2.6209   -7.4029    0.6517 H   0  0  0  1  0  0  0  0  0  0  0  0
   -0.9288   -7.2539    1.0624 H   0  0  0  1  0  0  0  0  0  0  0  0
  1 34  1  0  0  0  0
  2  4  1  0  0  0  0
  3  4  1  0  0  0  0
  4  5  1  0  0  0  0
  4 32  1  0  0  0  0
  6 10  1  0  0  0  0
  6 26  1  0  0  0  0
  6 42  1  0  0  0  0
  7  8  1  0  0  0  0
  7  9  2  0  0  0  0
  7 13  1  0  0  0  0
  8 43  1  0  0  0  0
  8 44  1  0  0  0  0
  8 45  1  0  0  0  0
 10 46  1  0  0  0  0
 10 47  1  0  0  0  0
 10 48  1  0  0  0  0
 11 27  1  0  0  0  0
 11 49  1  0  0  0  0
 12 26  2  0  0  0  0
 13 23  1  0  0  0  0
 13 50  1  0  0  0  0
 14 41  1  0  0  0  0
 15 24  1  0  0  0  0
 15 32  4  0  0  0  0
 15 34  4  0  0  0  0
 16 41  2  0  0  0  0
 17 18  1  0  0  0  0
 17 20  1  0  0  0  0
 17 51  1  0  0  0  0
 17 52  1  0  0  0  0
 18 23  1  0  0  0  0
 18 53  1  0  0  0  0
 18 54  1  0  0  0  0
 19 21  4  0  0  0  0
 19 29  1  0  0  0  0
 19 32  4  0  0  0  0
 20 24  1  0  0  0  0
 20 55  1  0  0  0  0
 20 56  1  0  0  0  0
 21 25  1  0  0  0  0
 21 34  4  0  0  0  0
 22 27  1  0  0  0  0
 22 28  1  0  0  0  0
 22 57  1  0  0  0  0
 22 58  1  0  0  0  0
 23 26  1  0  0  0  0
 23 59  1  0  0  0  0
 24 60  1  0  0  0  0
 24 61  1  0  0  0  0
 25 35  1  0  0  0  0
 25 62  1  0  0  0  0
 25 63  1  0  0  0  0
 27 31  1  0  0  0  0
 27 64  1  0  0  0  0
 28 30  1  0  0  0  0
 28 65  1  0  0  0  0
 28 66  1  0  0  0  0
 29 31  2  0  0  0  0
 29 67  1  0  0  0  0
 30 33  1  0  0  0  0
 30 68  1  0  0  0  0
 30 69  1  0  0  0  0
 31 70  1  0  0  0  0
 33 38  1  0  0  0  0
 33 71  1  0  0  0  0
 33 72  1  0  0  0  0
 35 36  2  0  0  0  0
 35 73  1  0  0  0  0
 36 37  1  0  0  0  0
 36 74  1  0  0  0  0
 37 39  1  0  0  0  0
 37 75  1  0  0  0  0
 37 76  1  0  0  0  0
 38 77  1  0  0  0  0
 38 78  1  0  0  0  0
 38 79  1  0  0  0  0
 39 40  1  0  0  0  0
 39 80  1  0  0  0  0
 39 81  1  0  0  0  0
 40 41  1  0  0  0  0
 40 82  1  0  0  0  0
 40 83  1  0  0  0  0
M  END
> <ConfClashScore>
0 

> <ConfOneFourInteractionScore>
-0.982519 

> <ConfScore>
-0.157867 

> <ConfScorePBest>
0.00737814 

> <ConfTolerance>
1.48484 

$$$$
9548876
  PyMOL2.2          3D                             0

 83 83  0  0  0  0  0  0  0  0999 V2000
   -5.0084   -1.0475   -0.0852 H   0  0  0  1  0  0  0  0  0  0  0  0
   -2.3909    3.5326    0.4917 H   0  0  0  1  0  0  0  0  0  0  0  0
   -4.0980    3.6398    0.1354 H   0  0  0  1  0  0  0  0  0  0  0  0
   -3.1737    3.1811   -0.1476 C   0  0  0  1  0  0  0  0  0  0  0  0
   -2.9456    3.4333   -1.1621 H   0  0  0  1  0  0  0  0  0  0  0  0
   -8.2598    6.4690    1.8482 N   0  0  0  1  0  0  0  0  0  0  0  0
   -7.9137    5.2164    4.7740 C   0  0  0  1  0  0  0  0  0  0  0  0
   -8.7596    5.4617    6.0084 C   0  0  0  1  0  0  0  0  0  0  0  0
   -6.7615    5.6420    4.7039 O   0  0  0  1  0  0  0  0  0  0  0  0
   -8.0804    7.7047    1.1007 C   0  0  0  1  0  0  0  0  0  0  0  0
    1.4462    1.3599    1.6985 O   0  0  0  1  0  0  0  0  0  0  0  0
   -6.2419    5.6320    1.3494 O   0  0  0  1  0  0  0  0  0  0  0  0
   -8.4591    4.5227    3.7633 N   0  0  0  1  0  0  0  0  0  0  0  0
    2.0707   -5.1603    5.8596 O   0  5  0  1  0  0  0  0  0  0  0  0
   -4.4740    1.0441   -0.1953 N   0  0  0  1  0  0  0  0  0  0  0  0
   -0.0141   -6.0441    6.0771 O   0  0  0  1  0  0  0  0  0  0  0  0
   -7.8252    2.8274    0.3809 C   0  0  0  1  0  0  0  0  0  0  0  0
   -8.4946    3.2104    1.6775 C   0  0  0  1  0  0  0  0  0  0  0  0
   -2.3219    0.7568    0.2802 C   0  0  0  1  0  0  0  0  0  0  0  0
   -6.5168    2.1253    0.7058 C   0  0  0  1  0  0  0  0  0  0  0  0
   -2.9463   -0.4990    0.2845 C   0  0  0  1  0  0  0  0  0  0  0  0
    2.0106    2.2076   -0.4957 C   0  0  0  1  0  0  0  0  0  0  0  0
   -7.7161    4.1943    2.5558 C   0  0  0  1  0  0  0  0  0  0  0  0
   -5.7232    1.7297   -0.5277 C   0  0  0  1  0  0  0  0  0  0  0  0
   -2.2694   -1.8368    0.4671 C   0  0  0  1  0  0  0  0  0  0  0  0
   -7.3515    5.4893    1.8360 C   0  0  0  1  0  0  0  0  0  0  0  0
    1.0987    2.3537    0.7261 C   0  0  0  1  0  0  0  0  0  0  0  0
    3.4680    2.3824   -0.1038 C   0  0  0  1  0  0  0  0  0  0  0  0
   -0.9467    1.0790    0.6415 C   0  0  0  1  0  0  0  0  0  0  0  0
    4.3782    1.9927   -1.2420 C   0  0  0  1  0  0  0  0  0  0  0  0
   -0.3304    2.2343    0.3947 C   0  0  0  1  0  0  0  0  0  0  0  0
   -3.2940    1.7015   -0.0191 C   0  0  0  1  0  0  0  0  0  0  0  0
    5.8667    2.0604   -0.9420 C   0  0  0  1  0  0  0  0  0  0  0  0
   -4.2816   -0.3072   -0.0127 C   0  0  0  1  0  0  0  0  0  0  0  0
   -3.0781   -2.8457    1.2191 C   0  0  0  1  0  0  0  0  0  0  0  0
   -2.6517   -3.5264    2.2561 C   0  0  0  1  0  0  0  0  0  0  0  0
   -1.4391   -3.2419    3.0844 C   0  0  0  1  0  0  0  0  0  0  0  0
    6.6818    1.7410   -2.1846 C   0  0  0  1  0  0  0  0  0  0  0  0
   -1.0108   -4.3599    4.0153 C   0  0  0  1  0  0  0  0  0  0  0  0
    0.3045   -4.0826    4.7248 C   0  0  0  1  0  0  0  0  0  0  0  0
    0.7331   -5.1970    5.6161 C   0  0  0  1  0  0  0  0  0  0  0  0
   -9.0752    6.3515    2.3789 H   0  0  0  1  0  0  0  0  0  0  0  0
   -8.2022    6.0419    6.7138 H   0  0  0  1  0  0  0  0  0  0  0  0
   -9.0264    4.5241    6.4497 H   0  0  0  1  0  0  0  0  0  0  0  0
   -9.6470    5.9921    5.7326 H   0  0  0  1  0  0  0  0  0  0  0  0
   -7.2344    7.6105    0.4525 H   0  0  0  1  0  0  0  0  0  0  0  0
   -7.9187    8.5134    1.7825 H   0  0  0  1  0  0  0  0  0  0  0  0
   -8.9563    7.8989    0.5176 H   0  0  0  1  0  0  0  0  0  0  0  0
    2.0876    1.7235    2.3133 H   0  0  0  1  0  0  0  0  0  0  0  0
   -9.3902    4.2270    3.8408 H   0  0  0  1  0  0  0  0  0  0  0  0
   -7.6299    3.7057   -0.1980 H   0  0  0  1  0  0  0  0  0  0  0  0
   -8.4609    2.1686   -0.1729 H   0  0  0  1  0  0  0  0  0  0  0  0
   -8.6518    2.3163    2.2439 H   0  0  0  1  0  0  0  0  0  0  0  0
   -9.4390    3.6548    1.4422 H   0  0  0  1  0  0  0  0  0  0  0  0
   -6.7365    1.2406    1.2660 H   0  0  0  1  0  0  0  0  0  0  0  0
   -5.9166    2.7836    1.2986 H   0  0  0  1  0  0  0  0  0  0  0  0
    1.7501    2.9519   -1.2190 H   0  0  0  1  0  0  0  0  0  0  0  0
    1.8756    1.2346   -0.9199 H   0  0  0  1  0  0  0  0  0  0  0  0
   -6.8023    3.7162    2.8411 H   0  0  0  1  0  0  0  0  0  0  0  0
   -6.3234    1.0773   -1.1269 H   0  0  0  1  0  0  0  0  0  0  0  0
   -5.4915    2.6136   -1.0845 H   0  0  0  1  0  0  0  0  0  0  0  0
   -1.3549   -1.6782    0.9995 H   0  0  0  1  0  0  0  0  0  0  0  0
   -2.0540   -2.2368   -0.5017 H   0  0  0  1  0  0  0  0  0  0  0  0
    1.2625    3.3252    1.1435 H   0  0  0  1  0  0  0  0  0  0  0  0
    3.6802    1.7635    0.7429 H   0  0  0  1  0  0  0  0  0  0  0  0
    3.6425    3.4071    0.1500 H   0  0  0  1  0  0  0  0  0  0  0  0
   -0.3998    0.3441    1.1340 H   0  0  0  1  0  0  0  0  0  0  0  0
    4.1775    2.6480   -2.0637 H   0  0  0  1  0  0  0  0  0  0  0  0
    4.1438    0.9869   -1.5219 H   0  0  0  1  0  0  0  0  0  0  0  0
   -0.8478    3.0341   -0.0227 H   0  0  0  1  0  0  0  0  0  0  0  0
    6.1028    1.3517   -0.1758 H   0  0  0  1  0  0  0  0  0  0  0  0
    6.1123    3.0458   -0.6051 H   0  0  0  1  0  0  0  0  0  0  0  0
   -4.0509   -3.0205    0.8956 H   0  0  0  1  0  0  0  0  0  0  0  0
   -3.2182   -4.3536    2.5324 H   0  0  0  1  0  0  0  0  0  0  0  0
   -1.6417   -2.3761    3.6796 H   0  0  0  1  0  0  0  0  0  0  0  0
   -0.6263   -3.0362    2.4197 H   0  0  0  1  0  0  0  0  0  0  0  0
    7.6458    1.3774   -1.8957 H   0  0  0  1  0  0  0  0  0  0  0  0
    6.7968    2.6273   -2.7729 H   0  0  0  1  0  0  0  0  0  0  0  0
    6.1766    0.9935   -2.7598 H   0  0  0  1  0  0  0  0  0  0  0  0
   -0.9043   -5.2569    3.4417 H   0  0  0  1  0  0  0  0  0  0  0  0
   -1.7726   -4.4967    4.7541 H   0  0  0  1  0  0  0  0  0  0  0  0
    0.1927   -3.1976    5.3157 H   0  0  0  1  0  0  0  0  0  0  0  0
    1.0631   -3.9258    3.9867 H   0  0  0  1  0  0  0  0  0  0  0  0
  1 34  1  0  0  0  0
  2  4  1  0  0  0  0
  3  4  1  0  0  0  0
  4  5  1  0  0  0  0
  4 32  1  0  0  0  0
  6 10  1  0  0  0  0
  6 26  1  0  0  0  0
  6 42  1  0  0  0  0
  7  8  1  0  0  0  0
  7  9  2  0  0  0  0
  7 13  1  0  0  0  0
  8 43  1  0  0  0  0
  8 44  1  0  0  0  0
  8 45  1  0  0  0  0
 10 46  1  0  0  0  0
 10 47  1  0  0  0  0
 10 48  1  0  0  0  0
 11 27  1  0  0  0  0
 11 49  1  0  0  0  0
 12 26  2  0  0  0  0
 13 23  1  0  0  0  0
 13 50  1  0  0  0  0
 14 41  1  0  0  0  0
 15 24  1  0  0  0  0
 15 32  4  0  0  0  0
 15 34  4  0  0  0  0
 16 41  2  0  0  0  0
 17 18  1  0  0  0  0
 17 20  1  0  0  0  0
 17 51  1  0  0  0  0
 17 52  1  0  0  0  0
 18 23  1  0  0  0  0
 18 53  1  0  0  0  0
 18 54  1  0  0  0  0
 19 21  4  0  0  0  0
 19 29  1  0  0  0  0
 19 32  4  0  0  0  0
 20 24  1  0  0  0  0
 20 55  1  0  0  0  0
 20 56  1  0  0  0  0
 21 25  1  0  0  0  0
 21 34  4  0  0  0  0
 22 27  1  0  0  0  0
 22 28  1  0  0  0  0
 22 57  1  0  0  0  0
 22 58  1  0  0  0  0
 23 26  1  0  0  0  0
 23 59  1  0  0  0  0
 24 60  1  0  0  0  0
 24 61  1  0  0  0  0
 25 35  1  0  0  0  0
 25 62  1  0  0  0  0
 25 63  1  0  0  0  0
 27 31  1  0  0  0  0
 27 64  1  0  0  0  0
 28 30  1  0  0  0  0
 28 65  1  0  0  0  0
 28 66  1  0  0  0  0
 29 31  2  0  0  0  0
 29 67  1  0  0  0  0
 30 33  1  0  0  0  0
 30 68  1  0  0  0  0
 30 69  1  0  0  0  0
 31 70  1  0  0  0  0
 33 38  1  0  0  0  0
 33 71  1  0  0  0  0
 33 72  1  0  0  0  0
 35 36  2  0  0  0  0
 35 73  1  0  0  0  0
 36 37  1  0  0  0  0
 36 74  1  0  0  0  0
 37 39  1  0  0  0  0
 37 75  1  0  0  0  0
 37 76  1  0  0  0  0
 38 77  1  0  0  0  0
 38 78  1  0  0  0  0
 38 79  1  0  0  0  0
 39 40  1  0  0  0  0
 39 80  1  0  0  0  0
 39 81  1  0  0  0  0
 40 41  1  0  0  0  0
 40 82  1  0  0  0  0
 40 83  1  0  0  0  0
M  END
> <ConfClashScore>
0 

> <ConfOneFourInteractionScore>
-0.987978 

> <ConfScore>
-0.146818 

> <ConfScorePBest>
0.00734966 

> <ConfTolerance>
1.50776 

$$$$
9548876
  PyMOL2.2          3D                             0

 83 83  0  0  0  0  0  0  0  0999 V2000
   -5.0077   -1.0511   -0.1057 H   0  0  0  1  0  0  0  0  0  0  0  0
   -3.8253    3.6483    0.5682 H   0  0  0  1  0  0  0  0  0  0  0  0
   -3.4412    3.4772   -1.1276 H   0  0  0  1  0  0  0  0  0  0  0  0
   -3.1720    3.1774   -0.1363 C   0  0  0  1  0  0  0  0  0  0  0  0
   -2.1622    3.4697    0.0634 H   0  0  0  1  0  0  0  0  0  0  0  0
   -9.5887    3.6631   -6.6786 N   0  0  0  1  0  0  0  0  0  0  0  0
  -10.7130    3.4540   -3.6642 C   0  0  0  1  0  0  0  0  0  0  0  0
  -11.8530    2.7871   -2.9193 C   0  0  0  1  0  0  0  0  0  0  0  0
  -10.7986    4.6183   -4.0525 O   0  0  0  1  0  0  0  0  0  0  0  0
   -9.7171    3.6771   -8.1282 C   0  0  0  1  0  0  0  0  0  0  0  0
    1.6579    2.1241    0.8390 O   0  0  0  1  0  0  0  0  0  0  0  0
   -7.7298    2.4119   -6.6610 O   0  0  0  1  0  0  0  0  0  0  0  0
   -9.6242    2.6948   -3.8647 N   0  0  0  1  0  0  0  0  0  0  0  0
   -4.6832   -8.2342   -2.9697 O   0  5  0  1  0  0  0  0  0  0  0  0
   -4.4723    1.0409   -0.2028 N   0  0  0  1  0  0  0  0  0  0  0  0
   -6.2087   -7.1597   -1.6428 O   0  0  0  1  0  0  0  0  0  0  0  0
   -7.0923    2.4855   -2.5402 C   0  0  0  1  0  0  0  0  0  0  0  0
   -7.1854    2.5607   -4.0521 C   0  0  0  1  0  0  0  0  0  0  0  0
   -2.3237    0.7512    0.2872 C   0  0  0  1  0  0  0  0  0  0  0  0
   -5.8132    1.8287   -2.0472 C   0  0  0  1  0  0  0  0  0  0  0  0
   -2.9484   -0.5045    0.2814 C   0  0  0  1  0  0  0  0  0  0  0  0
    1.5560    1.4578    3.0812 C   0  0  0  1  0  0  0  0  0  0  0  0
   -8.4646    3.2465   -4.5494 C   0  0  0  1  0  0  0  0  0  0  0  0
   -5.7304    1.7345   -0.5445 C   0  0  0  1  0  0  0  0  0  0  0  0
   -2.2830   -1.8316    0.5601 C   0  0  0  1  0  0  0  0  0  0  0  0
   -8.5801    3.0451   -6.0574 C   0  0  0  1  0  0  0  0  0  0  0  0
    1.3017    1.0021    1.6413 C   0  0  0  1  0  0  0  0  0  0  0  0
    2.9112    2.1168    3.2739 C   0  0  0  1  0  0  0  0  0  0  0  0
   -0.9327    1.1092    0.5471 C   0  0  0  1  0  0  0  0  0  0  0  0
    3.0497    2.8106    4.5860 C   0  0  0  1  0  0  0  0  0  0  0  0
   -0.1167    0.5789    1.4266 C   0  0  0  1  0  0  0  0  0  0  0  0
   -3.2935    1.6973   -0.0151 C   0  0  0  1  0  0  0  0  0  0  0  0
    4.3449    3.5515    4.8573 C   0  0  0  1  0  0  0  0  0  0  0  0
   -4.2814   -0.3112   -0.0247 C   0  0  0  1  0  0  0  0  0  0  0  0
   -3.0285   -2.7139    1.5104 C   0  0  0  1  0  0  0  0  0  0  0  0
   -3.3365   -3.9752    1.3397 C   0  0  0  1  0  0  0  0  0  0  0  0
   -3.0707   -4.8162    0.1215 C   0  0  0  1  0  0  0  0  0  0  0  0
    4.4606    4.0596    6.2852 C   0  0  0  1  0  0  0  0  0  0  0  0
   -4.2585   -5.6138   -0.3914 C   0  0  0  1  0  0  0  0  0  0  0  0
   -3.9581   -6.3925   -1.6617 C   0  0  0  1  0  0  0  0  0  0  0  0
   -5.0753   -7.2872   -2.0758 C   0  0  0  1  0  0  0  0  0  0  0  0
  -10.2656    4.1230   -6.1394 H   0  0  0  1  0  0  0  0  0  0  0  0
  -11.8852    1.7479   -3.1719 H   0  0  0  1  0  0  0  0  0  0  0  0
  -12.7777    3.2497   -3.1948 H   0  0  0  1  0  0  0  0  0  0  0  0
  -11.7006    2.8933   -1.8655 H   0  0  0  1  0  0  0  0  0  0  0  0
   -8.8506    4.1336   -8.5591 H   0  0  0  1  0  0  0  0  0  0  0  0
  -10.5879    4.2345   -8.4035 H   0  0  0  1  0  0  0  0  0  0  0  0
   -9.8071    2.6733   -8.4877 H   0  0  0  1  0  0  0  0  0  0  0  0
    1.8413    1.8321   -0.0569 H   0  0  0  1  0  0  0  0  0  0  0  0
   -9.6102    1.7670   -3.5494 H   0  0  0  1  0  0  0  0  0  0  0  0
   -7.9254    1.9210   -2.1767 H   0  0  0  1  0  0  0  0  0  0  0  0
   -7.1361    3.4799   -2.1478 H   0  0  0  1  0  0  0  0  0  0  0  0
   -7.1601    1.5651   -4.4435 H   0  0  0  1  0  0  0  0  0  0  0  0
   -6.3424    3.1094   -4.4170 H   0  0  0  1  0  0  0  0  0  0  0  0
   -4.9805    2.4022   -2.3976 H   0  0  0  1  0  0  0  0  0  0  0  0
   -5.7616    0.8398   -2.4525 H   0  0  0  1  0  0  0  0  0  0  0  0
    1.5002    0.6031    3.7224 H   0  0  0  1  0  0  0  0  0  0  0  0
    0.7957    2.1594    3.3543 H   0  0  0  1  0  0  0  0  0  0  0  0
   -8.3914    4.2947   -4.3470 H   0  0  0  1  0  0  0  0  0  0  0  0
   -5.7320    2.7158   -0.1180 H   0  0  0  1  0  0  0  0  0  0  0  0
   -6.5649    1.1803   -0.1685 H   0  0  0  1  0  0  0  0  0  0  0  0
   -1.3148   -1.6393    0.9729 H   0  0  0  1  0  0  0  0  0  0  0  0
   -2.1784   -2.3538   -0.3680 H   0  0  0  1  0  0  0  0  0  0  0  0
    1.9459    0.1756    1.4249 H   0  0  0  1  0  0  0  0  0  0  0  0
    3.0532    2.8351    2.4937 H   0  0  0  1  0  0  0  0  0  0  0  0
    3.6676    1.3629    3.2073 H   0  0  0  1  0  0  0  0  0  0  0  0
   -0.5415    1.8770   -0.0351 H   0  0  0  1  0  0  0  0  0  0  0  0
    2.9377    2.0716    5.3517 H   0  0  0  1  0  0  0  0  0  0  0  0
    2.2536    3.5220    4.6570 H   0  0  0  1  0  0  0  0  0  0  0  0
   -0.4834   -0.1933    2.0188 H   0  0  0  1  0  0  0  0  0  0  0  0
    4.4021    4.3888    4.1936 H   0  0  0  1  0  0  0  0  0  0  0  0
    5.1619    2.8877    4.6661 H   0  0  0  1  0  0  0  0  0  0  0  0
   -3.3356   -2.2784    2.4035 H   0  0  0  1  0  0  0  0  0  0  0  0
   -3.8170   -4.4465    2.1326 H   0  0  0  1  0  0  0  0  0  0  0  0
   -2.2885   -5.5059    0.3609 H   0  0  0  1  0  0  0  0  0  0  0  0
   -2.7457   -4.1662   -0.6638 H   0  0  0  1  0  0  0  0  0  0  0  0
    3.6948    4.7837    6.4698 H   0  0  0  1  0  0  0  0  0  0  0  0
    5.4201    4.5119    6.4258 H   0  0  0  1  0  0  0  0  0  0  0  0
    4.3486    3.2410    6.9650 H   0  0  0  1  0  0  0  0  0  0  0  0
   -5.0617   -4.9357   -0.5911 H   0  0  0  1  0  0  0  0  0  0  0  0
   -4.5559   -6.3060    0.3685 H   0  0  0  1  0  0  0  0  0  0  0  0
   -3.0863   -6.9905   -1.4965 H   0  0  0  1  0  0  0  0  0  0  0  0
   -3.7690   -5.6959   -2.4516 H   0  0  0  1  0  0  0  0  0  0  0  0
  1 34  1  0  0  0  0
  2  4  1  0  0  0  0
  3  4  1  0  0  0  0
  4  5  1  0  0  0  0
  4 32  1  0  0  0  0
  6 10  1  0  0  0  0
  6 26  1  0  0  0  0
  6 42  1  0  0  0  0
  7  8  1  0  0  0  0
  7  9  2  0  0  0  0
  7 13  1  0  0  0  0
  8 43  1  0  0  0  0
  8 44  1  0  0  0  0
  8 45  1  0  0  0  0
 10 46  1  0  0  0  0
 10 47  1  0  0  0  0
 10 48  1  0  0  0  0
 11 27  1  0  0  0  0
 11 49  1  0  0  0  0
 12 26  2  0  0  0  0
 13 23  1  0  0  0  0
 13 50  1  0  0  0  0
 14 41  1  0  0  0  0
 15 24  1  0  0  0  0
 15 32  4  0  0  0  0
 15 34  4  0  0  0  0
 16 41  2  0  0  0  0
 17 18  1  0  0  0  0
 17 20  1  0  0  0  0
 17 51  1  0  0  0  0
 17 52  1  0  0  0  0
 18 23  1  0  0  0  0
 18 53  1  0  0  0  0
 18 54  1  0  0  0  0
 19 21  4  0  0  0  0
 19 29  1  0  0  0  0
 19 32  4  0  0  0  0
 20 24  1  0  0  0  0
 20 55  1  0  0  0  0
 20 56  1  0  0  0  0
 21 25  1  0  0  0  0
 21 34  4  0  0  0  0
 22 27  1  0  0  0  0
 22 28  1  0  0  0  0
 22 57  1  0  0  0  0
 22 58  1  0  0  0  0
 23 26  1  0  0  0  0
 23 59  1  0  0  0  0
 24 60  1  0  0  0  0
 24 61  1  0  0  0  0
 25 35  1  0  0  0  0
 25 62  1  0  0  0  0
 25 63  1  0  0  0  0
 27 31  1  0  0  0  0
 27 64  1  0  0  0  0
 28 30  1  0  0  0  0
 28 65  1  0  0  0  0
 28 66  1  0  0  0  0
 29 31  2  0  0  0  0
 29 67  1  0  0  0  0
 30 33  1  0  0  0  0
 30 68  1  0  0  0  0
 30 69  1  0  0  0  0
 31 70  1  0  0  0  0
 33 38  1  0  0  0  0
 33 71  1  0  0  0  0
 33 72  1  0  0  0  0
 35 36  2  0  0  0  0
 35 73  1  0  0  0  0
 36 37  1  0  0  0  0
 36 74  1  0  0  0  0
 37 39  1  0  0  0  0
 37 75  1  0  0  0  0
 37 76  1  0  0  0  0
 38 77  1  0  0  0  0
 38 78  1  0  0  0  0
 38 79  1  0  0  0  0
 39 40  1  0  0  0  0
 39 80  1  0  0  0  0
 39 81  1  0  0  0  0
 40 41  1  0  0  0  0
 40 82  1  0  0  0  0
 40 83  1  0  0  0  0
M  END
> <ConfClashScore>
0 

> <ConfOneFourInteractionScore>
-0.992299 

> <ConfScore>
-0.142207 

> <ConfScorePBest>
0.00732118 

> <ConfTolerance>
1.4923 

$$$$
9548876
  PyMOL2.2          3D                             0

 83 83  0  0  0  0  0  0  0  0999 V2000
   -5.0067   -1.0341   -0.1078 H   0  0  0  1  0  0  0  0  0  0  0  0
   -3.7019    3.6627    0.6642 H   0  0  0  1  0  0  0  0  0  0  0  0
   -3.5824    3.5104   -1.0722 H   0  0  0  1  0  0  0  0  0  0  0  0
   -3.1698    3.1939   -0.1370 C   0  0  0  1  0  0  0  0  0  0  0  0
   -2.1375    3.4715   -0.0899 H   0  0  0  1  0  0  0  0  0  0  0  0
   -9.2039    2.5200   -6.6517 N   0  0  0  1  0  0  0  0  0  0  0  0
  -11.1167    2.2773   -4.4182 C   0  0  0  1  0  0  0  0  0  0  0  0
  -11.9860    1.1184   -3.9703 C   0  0  0  1  0  0  0  0  0  0  0  0
  -11.5889    3.2458   -5.0120 O   0  0  0  1  0  0  0  0  0  0  0  0
   -9.3918    2.7261   -8.0800 C   0  0  0  1  0  0  0  0  0  0  0  0
    1.8512    1.6925    1.7354 O   0  0  0  1  0  0  0  0  0  0  0  0
   -8.7518    4.6778   -6.1763 O   0  0  0  1  0  0  0  0  0  0  0  0
   -9.8197    2.1316   -4.1042 N   0  0  0  1  0  0  0  0  0  0  0  0
   -5.0775   -8.1152   -0.1762 O   0  5  0  1  0  0  0  0  0  0  0  0
   -4.4707    1.0578   -0.2043 N   0  0  0  1  0  0  0  0  0  0  0  0
   -5.4877   -5.9083   -0.5454 O   0  0  0  1  0  0  0  0  0  0  0  0
   -7.2677    2.4206   -2.4680 C   0  0  0  1  0  0  0  0  0  0  0  0
   -7.3930    2.5851   -3.9748 C   0  0  0  1  0  0  0  0  0  0  0  0
   -2.3222    0.7674    0.2858 C   0  0  0  1  0  0  0  0  0  0  0  0
   -5.9212    1.8970   -2.0335 C   0  0  0  1  0  0  0  0  0  0  0  0
   -2.9473   -0.4882    0.2796 C   0  0  0  1  0  0  0  0  0  0  0  0
    1.7444   -0.4265    2.7564 C   0  0  0  1  0  0  0  0  0  0  0  0
   -8.7838    3.1284   -4.3507 C   0  0  0  1  0  0  0  0  0  0  0  0
   -5.7681    1.6432   -0.5435 C   0  0  0  1  0  0  0  0  0  0  0  0
   -2.2823   -1.8155    0.5579 C   0  0  0  1  0  0  0  0  0  0  0  0
   -8.8847    3.5178   -5.8225 C   0  0  0  1  0  0  0  0  0  0  0  0
    1.3119    0.3792    1.5377 C   0  0  0  1  0  0  0  0  0  0  0  0
    0.9883   -1.7420    2.7535 C   0  0  0  1  0  0  0  0  0  0  0  0
   -0.9127    1.0187    0.5606 C   0  0  0  1  0  0  0  0  0  0  0  0
    1.6274   -2.6639    3.7753 C   0  0  0  1  0  0  0  0  0  0  0  0
   -0.1803    0.3758    1.4353 C   0  0  0  1  0  0  0  0  0  0  0  0
   -3.2918    1.7138   -0.0163 C   0  0  0  1  0  0  0  0  0  0  0  0
    0.9174   -4.0004    3.9080 C   0  0  0  1  0  0  0  0  0  0  0  0
   -4.2802   -0.2944   -0.0265 C   0  0  0  1  0  0  0  0  0  0  0  0
   -1.4213   -2.3220   -0.5490 C   0  0  0  1  0  0  0  0  0  0  0  0
   -1.3982   -3.5029   -1.1146 C   0  0  0  1  0  0  0  0  0  0  0  0
   -2.0255   -4.7693   -0.5963 C   0  0  0  1  0  0  0  0  0  0  0  0
    1.6501   -4.9044    4.8827 C   0  0  0  1  0  0  0  0  0  0  0  0
   -2.9303   -5.4478   -1.6164 C   0  0  0  1  0  0  0  0  0  0  0  0
   -3.3718   -6.8440   -1.1976 C   0  0  0  1  0  0  0  0  0  0  0  0
   -4.7445   -6.8731   -0.6188 C   0  0  0  1  0  0  0  0  0  0  0  0
   -9.3152    1.6179   -6.2853 H   0  0  0  1  0  0  0  0  0  0  0  0
  -11.6299    0.2124   -4.4144 H   0  0  0  1  0  0  0  0  0  0  0  0
  -12.9966    1.2920   -4.2761 H   0  0  0  1  0  0  0  0  0  0  0  0
  -11.9450    1.0332   -2.9045 H   0  0  0  1  0  0  0  0  0  0  0  0
   -9.8067    3.6977   -8.2491 H   0  0  0  1  0  0  0  0  0  0  0  0
  -10.0589    1.9821   -8.4627 H   0  0  0  1  0  0  0  0  0  0  0  0
   -8.4480    2.6498   -8.5784 H   0  0  0  1  0  0  0  0  0  0  0  0
    2.8102    1.6491    1.7313 H   0  0  0  1  0  0  0  0  0  0  0  0
   -9.5484    1.2923   -3.6772 H   0  0  0  1  0  0  0  0  0  0  0  0
   -8.0207    1.7358   -2.1377 H   0  0  0  1  0  0  0  0  0  0  0  0
   -7.4255    3.3739   -2.0084 H   0  0  0  1  0  0  0  0  0  0  0  0
   -7.2489    1.6347   -4.4447 H   0  0  0  1  0  0  0  0  0  0  0  0
   -6.6449    3.2696   -4.3165 H   0  0  0  1  0  0  0  0  0  0  0  0
   -5.1802    2.6122   -2.3238 H   0  0  0  1  0  0  0  0  0  0  0  0
   -5.7461    0.9736   -2.5448 H   0  0  0  1  0  0  0  0  0  0  0  0
    1.5176    0.1185    3.6489 H   0  0  0  1  0  0  0  0  0  0  0  0
    2.7967   -0.6146    2.7104 H   0  0  0  1  0  0  0  0  0  0  0  0
   -8.9777    3.9965   -3.7560 H   0  0  0  1  0  0  0  0  0  0  0  0
   -5.8706    2.5735   -0.0249 H   0  0  0  1  0  0  0  0  0  0  0  0
   -6.5398    0.9720   -0.2289 H   0  0  0  1  0  0  0  0  0  0  0  0
   -3.0478   -2.5398    0.7435 H   0  0  0  1  0  0  0  0  0  0  0  0
   -1.6737   -1.7073    1.4313 H   0  0  0  1  0  0  0  0  0  0  0  0
    1.7278   -0.0656    0.6579 H   0  0  0  1  0  0  0  0  0  0  0  0
    1.0417   -2.1873    1.7820 H   0  0  0  1  0  0  0  0  0  0  0  0
   -0.0358   -1.5707    3.0121 H   0  0  0  1  0  0  0  0  0  0  0  0
   -0.4492    1.7732    0.0152 H   0  0  0  1  0  0  0  0  0  0  0  0
    1.6134   -2.1763    4.7277 H   0  0  0  1  0  0  0  0  0  0  0  0
    2.6402   -2.8454    3.4818 H   0  0  0  1  0  0  0  0  0  0  0  0
   -0.6917   -0.1995    2.1346 H   0  0  0  1  0  0  0  0  0  0  0  0
    0.8804   -4.4746    2.9495 H   0  0  0  1  0  0  0  0  0  0  0  0
   -0.0782   -3.8350    4.2634 H   0  0  0  1  0  0  0  0  0  0  0  0
   -0.7379   -1.6358   -0.9281 H   0  0  0  1  0  0  0  0  0  0  0  0
   -0.8915   -3.5734   -2.0200 H   0  0  0  1  0  0  0  0  0  0  0  0
   -2.6070   -4.5316    0.2699 H   0  0  0  1  0  0  0  0  0  0  0  0
   -1.2453   -5.4503   -0.3268 H   0  0  0  1  0  0  0  0  0  0  0  0
    2.3550   -5.5076    4.3496 H   0  0  0  1  0  0  0  0  0  0  0  0
    0.9453   -5.5365    5.3813 H   0  0  0  1  0  0  0  0  0  0  0  0
    2.1665   -4.3064    5.6043 H   0  0  0  1  0  0  0  0  0  0  0  0
   -2.4003   -5.5232   -2.5428 H   0  0  0  1  0  0  0  0  0  0  0  0
   -3.8023   -4.8427   -1.7519 H   0  0  0  1  0  0  0  0  0  0  0  0
   -2.6852   -7.2127   -0.4644 H   0  0  0  1  0  0  0  0  0  0  0  0
   -3.3514   -7.4800   -2.0578 H   0  0  0  1  0  0  0  0  0  0  0  0
  1 34  1  0  0  0  0
  2  4  1  0  0  0  0
  3  4  1  0  0  0  0
  4  5  1  0  0  0  0
  4 32  1  0  0  0  0
  6 10  1  0  0  0  0
  6 26  1  0  0  0  0
  6 42  1  0  0  0  0
  7  8  1  0  0  0  0
  7  9  2  0  0  0  0
  7 13  1  0  0  0  0
  8 43  1  0  0  0  0
  8 44  1  0  0  0  0
  8 45  1  0  0  0  0
 10 46  1  0  0  0  0
 10 47  1  0  0  0  0
 10 48  1  0  0  0  0
 11 27  1  0  0  0  0
 11 49  1  0  0  0  0
 12 26  2  0  0  0  0
 13 23  1  0  0  0  0
 13 50  1  0  0  0  0
 14 41  1  0  0  0  0
 15 24  1  0  0  0  0
 15 32  4  0  0  0  0
 15 34  4  0  0  0  0
 16 41  2  0  0  0  0
 17 18  1  0  0  0  0
 17 20  1  0  0  0  0
 17 51  1  0  0  0  0
 17 52  1  0  0  0  0
 18 23  1  0  0  0  0
 18 53  1  0  0  0  0
 18 54  1  0  0  0  0
 19 21  4  0  0  0  0
 19 29  1  0  0  0  0
 19 32  4  0  0  0  0
 20 24  1  0  0  0  0
 20 55  1  0  0  0  0
 20 56  1  0  0  0  0
 21 25  1  0  0  0  0
 21 34  4  0  0  0  0
 22 27  1  0  0  0  0
 22 28  1  0  0  0  0
 22 57  1  0  0  0  0
 22 58  1  0  0  0  0
 23 26  1  0  0  0  0
 23 59  1  0  0  0  0
 24 60  1  0  0  0  0
 24 61  1  0  0  0  0
 25 35  1  0  0  0  0
 25 62  1  0  0  0  0
 25 63  1  0  0  0  0
 27 31  1  0  0  0  0
 27 64  1  0  0  0  0
 28 30  1  0  0  0  0
 28 65  1  0  0  0  0
 28 66  1  0  0  0  0
 29 31  2  0  0  0  0
 29 67  1  0  0  0  0
 30 33  1  0  0  0  0
 30 68  1  0  0  0  0
 30 69  1  0  0  0  0
 31 70  1  0  0  0  0
 33 38  1  0  0  0  0
 33 71  1  0  0  0  0
 33 72  1  0  0  0  0
 35 36  2  0  0  0  0
 35 73  1  0  0  0  0
 36 37  1  0  0  0  0
 36 74  1  0  0  0  0
 37 39  1  0  0  0  0
 37 75  1  0  0  0  0
 37 76  1  0  0  0  0
 38 77  1  0  0  0  0
 38 78  1  0  0  0  0
 38 79  1  0  0  0  0
 39 40  1  0  0  0  0
 39 80  1  0  0  0  0
 39 81  1  0  0  0  0
 40 41  1  0  0  0  0
 40 82  1  0  0  0  0
 40 83  1  0  0  0  0
M  END
> <ConfClashScore>
0 

> <ConfOneFourInteractionScore>
-0.984264 

> <ConfScore>
-0.138685 

> <ConfScorePBest>
0.0072927 

> <ConfTolerance>
1.65031 

$$$$
9548876
  PyMOL2.2          3D                             0

 83 83  0  0  0  0  0  0  0  0999 V2000
   -4.9899   -1.0411   -0.1233 H   0  0  0  1  0  0  0  0  0  0  0  0
   -2.5519    3.4392   -0.9874 H   0  0  0  1  0  0  0  0  0  0  0  0
   -2.7420    3.5942    0.7424 H   0  0  0  1  0  0  0  0  0  0  0  0
   -3.1743    3.1961   -0.1517 C   0  0  0  1  0  0  0  0  0  0  0  0
   -4.1468    3.6181   -0.2969 H   0  0  0  1  0  0  0  0  0  0  0  0
  -10.9752    4.5176    3.3433 N   0  0  0  1  0  0  0  0  0  0  0  0
  -11.5299    3.9391   -0.1810 C   0  0  0  1  0  0  0  0  0  0  0  0
  -11.6070    4.9939   -1.2676 C   0  0  0  1  0  0  0  0  0  0  0  0
  -12.3655    3.0389   -0.1095 O   0  0  0  1  0  0  0  0  0  0  0  0
  -11.7290    4.9509    4.5103 C   0  0  0  1  0  0  0  0  0  0  0  0
    2.0208    2.8014    0.5316 O   0  0  0  1  0  0  0  0  0  0  0  0
  -11.4606    2.3267    3.5696 O   0  0  0  1  0  0  0  0  0  0  0  0
  -10.4609    3.9955    0.6290 N   0  0  0  1  0  0  0  0  0  0  0  0
    1.8837   -5.2861    4.4735 O   0  5  0  1  0  0  0  0  0  0  0  0
   -4.4644    1.0534   -0.2196 N   0  0  0  1  0  0  0  0  0  0  0  0
    0.0646   -4.4362    3.3730 O   0  0  0  1  0  0  0  0  0  0  0  0
   -7.9854    2.3264    0.5875 C   0  0  0  1  0  0  0  0  0  0  0  0
   -8.6964    2.7731    1.8409 C   0  0  0  1  0  0  0  0  0  0  0  0
   -2.3148    0.7738    0.2718 C   0  0  0  1  0  0  0  0  0  0  0  0
   -6.5353    1.9366    0.8238 C   0  0  0  1  0  0  0  0  0  0  0  0
   -2.9335   -0.4848    0.2653 C   0  0  0  1  0  0  0  0  0  0  0  0
    0.8983    3.3002    2.5955 C   0  0  0  1  0  0  0  0  0  0  0  0
  -10.1997    2.9849    1.6431 C   0  0  0  1  0  0  0  0  0  0  0  0
   -5.7621    1.6851   -0.4604 C   0  0  0  1  0  0  0  0  0  0  0  0
   -2.3167   -1.8370    0.5351 C   0  0  0  1  0  0  0  0  0  0  0  0
  -10.9201    3.2376    2.9642 C   0  0  0  1  0  0  0  0  0  0  0  0
    1.0334    2.3284    1.4200 C   0  0  0  1  0  0  0  0  0  0  0  0
    0.2007    2.6939    3.8012 C   0  0  0  1  0  0  0  0  0  0  0  0
   -0.9215    0.9928    0.6479 C   0  0  0  1  0  0  0  0  0  0  0  0
   -0.0582    3.6958    4.9146 C   0  0  0  1  0  0  0  0  0  0  0  0
   -0.2821    2.1348    0.7349 C   0  0  0  1  0  0  0  0  0  0  0  0
   -3.2889    1.7154   -0.0309 C   0  0  0  1  0  0  0  0  0  0  0  0
   -0.7471    3.0325    6.0813 C   0  0  0  1  0  0  0  0  0  0  0  0
   -4.2672   -0.2978   -0.0416 C   0  0  0  1  0  0  0  0  0  0  0  0
   -1.3478   -2.2979   -0.5071 C   0  0  0  1  0  0  0  0  0  0  0  0
   -0.1489   -2.7861   -0.3092 C   0  0  0  1  0  0  0  0  0  0  0  0
    0.4896   -2.9797    1.0402 C   0  0  0  1  0  0  0  0  0  0  0  0
   -1.1918    3.9659    7.1954 C   0  0  0  1  0  0  0  0  0  0  0  0
    1.6966   -3.9032    1.0634 C   0  0  0  1  0  0  0  0  0  0  0  0
    2.2336   -4.0525    2.4775 C   0  0  0  1  0  0  0  0  0  0  0  0
    1.2693   -4.6007    3.4723 C   0  0  0  1  0  0  0  0  0  0  0  0
  -10.4913    5.1879    2.8171 H   0  0  0  1  0  0  0  0  0  0  0  0
  -12.0999    4.5873   -2.1258 H   0  0  0  1  0  0  0  0  0  0  0  0
  -10.6180    5.3012   -1.5368 H   0  0  0  1  0  0  0  0  0  0  0  0
  -12.1574    5.8376   -0.9069 H   0  0  0  1  0  0  0  0  0  0  0  0
  -11.8254    4.1353    5.1962 H   0  0  0  1  0  0  0  0  0  0  0  0
  -12.7014    5.2772    4.2056 H   0  0  0  1  0  0  0  0  0  0  0  0
  -11.2143    5.7587    4.9872 H   0  0  0  1  0  0  0  0  0  0  0  0
    2.1027    2.1956   -0.2086 H   0  0  0  1  0  0  0  0  0  0  0  0
   -9.8346    4.7432    0.5341 H   0  0  0  1  0  0  0  0  0  0  0  0
   -8.0100    3.1283   -0.1205 H   0  0  0  1  0  0  0  0  0  0  0  0
   -8.5033    1.4801    0.1870 H   0  0  0  1  0  0  0  0  0  0  0  0
   -8.2636    3.6961    2.1658 H   0  0  0  1  0  0  0  0  0  0  0  0
   -8.5552    2.0273    2.5951 H   0  0  0  1  0  0  0  0  0  0  0  0
   -6.5158    1.0430    1.4121 H   0  0  0  1  0  0  0  0  0  0  0  0
   -6.0543    2.7278    1.3600 H   0  0  0  1  0  0  0  0  0  0  0  0
    0.3358    4.1502    2.2701 H   0  0  0  1  0  0  0  0  0  0  0  0
    1.8779    3.6124    2.8919 H   0  0  0  1  0  0  0  0  0  0  0  0
  -10.5829    2.0593    1.2673 H   0  0  0  1  0  0  0  0  0  0  0  0
   -6.3432    1.0449   -1.0908 H   0  0  0  1  0  0  0  0  0  0  0  0
   -5.6015    2.6213   -0.9529 H   0  0  0  1  0  0  0  0  0  0  0  0
   -3.1057   -2.5569    0.5990 H   0  0  0  1  0  0  0  0  0  0  0  0
   -1.8013   -1.7878    1.4715 H   0  0  0  1  0  0  0  0  0  0  0  0
    1.3391    1.3821    1.8150 H   0  0  0  1  0  0  0  0  0  0  0  0
    0.8145    1.9076    4.1884 H   0  0  0  1  0  0  0  0  0  0  0  0
   -0.7378    2.2905    3.4828 H   0  0  0  1  0  0  0  0  0  0  0  0
   -0.3694    0.1410    0.8740 H   0  0  0  1  0  0  0  0  0  0  0  0
   -0.6799    4.4825    4.5410 H   0  0  0  1  0  0  0  0  0  0  0  0
    0.8748    4.1035    5.2436 H   0  0  0  1  0  0  0  0  0  0  0  0
   -0.7226    2.9678    0.2948 H   0  0  0  1  0  0  0  0  0  0  0  0
   -0.0703    2.3177    6.5007 H   0  0  0  1  0  0  0  0  0  0  0  0
   -1.6139    2.5277    5.7086 H   0  0  0  1  0  0  0  0  0  0  0  0
   -1.6602   -2.2225   -1.4962 H   0  0  0  1  0  0  0  0  0  0  0  0
    0.4032   -3.0605   -1.1467 H   0  0  0  1  0  0  0  0  0  0  0  0
   -0.2490   -3.3853    1.6997 H   0  0  0  1  0  0  0  0  0  0  0  0
    0.8007   -2.0208    1.3988 H   0  0  0  1  0  0  0  0  0  0  0  0
   -2.2605    3.9766    7.2472 H   0  0  0  1  0  0  0  0  0  0  0  0
   -0.8347    4.9547    6.9958 H   0  0  0  1  0  0  0  0  0  0  0  0
   -0.7932    3.6237    8.1275 H   0  0  0  1  0  0  0  0  0  0  0  0
    2.4630   -3.4946    0.4383 H   0  0  0  1  0  0  0  0  0  0  0  0
    1.4094   -4.8653    0.6937 H   0  0  0  1  0  0  0  0  0  0  0  0
    2.5441   -3.0863    2.8164 H   0  0  0  1  0  0  0  0  0  0  0  0
    3.0792   -4.7072    2.4420 H   0  0  0  1  0  0  0  0  0  0  0  0
  1 34  1  0  0  0  0
  2  4  1  0  0  0  0
  3  4  1  0  0  0  0
  4  5  1  0  0  0  0
  4 32  1  0  0  0  0
  6 10  1  0  0  0  0
  6 26  1  0  0  0  0
  6 42  1  0  0  0  0
  7  8  1  0  0  0  0
  7  9  2  0  0  0  0
  7 13  1  0  0  0  0
  8 43  1  0  0  0  0
  8 44  1  0  0  0  0
  8 45  1  0  0  0  0
 10 46  1  0  0  0  0
 10 47  1  0  0  0  0
 10 48  1  0  0  0  0
 11 27  1  0  0  0  0
 11 49  1  0  0  0  0
 12 26  2  0  0  0  0
 13 23  1  0  0  0  0
 13 50  1  0  0  0  0
 14 41  1  0  0  0  0
 15 24  1  0  0  0  0
 15 32  4  0  0  0  0
 15 34  4  0  0  0  0
 16 41  2  0  0  0  0
 17 18  1  0  0  0  0
 17 20  1  0  0  0  0
 17 51  1  0  0  0  0
 17 52  1  0  0  0  0
 18 23  1  0  0  0  0
 18 53  1  0  0  0  0
 18 54  1  0  0  0  0
 19 21  4  0  0  0  0
 19 29  1  0  0  0  0
 19 32  4  0  0  0  0
 20 24  1  0  0  0  0
 20 55  1  0  0  0  0
 20 56  1  0  0  0  0
 21 25  1  0  0  0  0
 21 34  4  0  0  0  0
 22 27  1  0  0  0  0
 22 28  1  0  0  0  0
 22 57  1  0  0  0  0
 22 58  1  0  0  0  0
 23 26  1  0  0  0  0
 23 59  1  0  0  0  0
 24 60  1  0  0  0  0
 24 61  1  0  0  0  0
 25 35  1  0  0  0  0
 25 62  1  0  0  0  0
 25 63  1  0  0  0  0
 27 31  1  0  0  0  0
 27 64  1  0  0  0  0
 28 30  1  0  0  0  0
 28 65  1  0  0  0  0
 28 66  1  0  0  0  0
 29 31  2  0  0  0  0
 29 67  1  0  0  0  0
 30 33  1  0  0  0  0
 30 68  1  0  0  0  0
 30 69  1  0  0  0  0
 31 70  1  0  0  0  0
 33 38  1  0  0  0  0
 33 71  1  0  0  0  0
 33 72  1  0  0  0  0
 35 36  2  0  0  0  0
 35 73  1  0  0  0  0
 36 37  1  0  0  0  0
 36 74  1  0  0  0  0
 37 39  1  0  0  0  0
 37 75  1  0  0  0  0
 37 76  1  0  0  0  0
 38 77  1  0  0  0  0
 38 78  1  0  0  0  0
 38 79  1  0  0  0  0
 39 40  1  0  0  0  0
 39 80  1  0  0  0  0
 39 81  1  0  0  0  0
 40 41  1  0  0  0  0
 40 82  1  0  0  0  0
 40 83  1  0  0  0  0
M  END
> <ConfClashScore>
0 

> <ConfOneFourInteractionScore>
-0.985229 

> <ConfScore>
-0.137569 

> <ConfScorePBest>
0.00726422 

> <ConfTolerance>
1.61074 

$$$$
9548876
  PyMOL2.2          3D                             0

 83 83  0  0  0  0  0  0  0  0999 V2000
   -5.0011   -1.0289   -0.1466 H   0  0  0  1  0  0  0  0  0  0  0  0
   -3.3716    3.6769    0.7821 H   0  0  0  1  0  0  0  0  0  0  0  0
   -3.9194    3.4956   -0.8671 H   0  0  0  1  0  0  0  0  0  0  0  0
   -3.1888    3.1842   -0.1500 C   0  0  0  1  0  0  0  0  0  0  0  0
   -2.2112    3.4393   -0.5023 H   0  0  0  1  0  0  0  0  0  0  0  0
  -11.2346    0.8359   -4.9156 N   0  0  0  1  0  0  0  0  0  0  0  0
  -11.0906    2.6459   -0.9569 C   0  0  0  1  0  0  0  0  0  0  0  0
  -11.7686    2.7174    0.3975 C   0  0  0  1  0  0  0  0  0  0  0  0
  -10.8674    3.7027   -1.5458 O   0  0  0  1  0  0  0  0  0  0  0  0
  -11.8761    0.0978   -5.9932 C   0  0  0  1  0  0  0  0  0  0  0  0
    1.8308    1.7666    1.0527 O   0  0  0  1  0  0  0  0  0  0  0  0
  -11.4840   -0.6971   -3.2802 O   0  0  0  1  0  0  0  0  0  0  0  0
  -10.7725    1.4460   -1.4380 N   0  0  0  1  0  0  0  0  0  0  0  0
   -7.3178   -5.6316   -2.3485 O   0  5  0  1  0  0  0  0  0  0  0  0
   -4.4580    1.0632   -0.1743 N   0  0  0  1  0  0  0  0  0  0  0  0
   -6.5512   -7.7629   -2.5590 O   0  0  0  1  0  0  0  0  0  0  0  0
   -7.9251    1.5226   -1.7589 C   0  0  0  1  0  0  0  0  0  0  0  0
   -8.8067    0.6651   -2.6538 C   0  0  0  1  0  0  0  0  0  0  0  0
   -2.3135    0.7506    0.3193 C   0  0  0  1  0  0  0  0  0  0  0  0
   -6.6008    0.8641   -1.4084 C   0  0  0  1  0  0  0  0  0  0  0  0
   -2.9423   -0.5021    0.2701 C   0  0  0  1  0  0  0  0  0  0  0  0
    1.1690    3.5788   -0.4213 C   0  0  0  1  0  0  0  0  0  0  0  0
  -10.2114    1.2658   -2.7686 C   0  0  0  1  0  0  0  0  0  0  0  0
   -5.7274    1.7136   -0.5008 C   0  0  0  1  0  0  0  0  0  0  0  0
   -2.2810   -1.8441    0.5114 C   0  0  0  1  0  0  0  0  0  0  0  0
  -11.0643    0.3796   -3.6715 C   0  0  0  1  0  0  0  0  0  0  0  0
    0.8772    2.7950    0.8491 C   0  0  0  1  0  0  0  0  0  0  0  0
    2.6039    4.0438   -0.4450 C   0  0  0  1  0  0  0  0  0  0  0  0
   -0.9086    1.0445    0.6054 C   0  0  0  1  0  0  0  0  0  0  0  0
    3.0229    4.8062   -1.6878 C   0  0  0  1  0  0  0  0  0  0  0  0
   -0.5246    2.2731    0.8458 C   0  0  0  1  0  0  0  0  0  0  0  0
   -3.2782    1.7092    0.0412 C   0  0  0  1  0  0  0  0  0  0  0  0
    4.3631    5.5012   -1.5435 C   0  0  0  1  0  0  0  0  0  0  0  0
   -4.2728   -0.2945   -0.0378 C   0  0  0  1  0  0  0  0  0  0  0  0
   -3.0606   -2.8577    1.2874 C   0  0  0  1  0  0  0  0  0  0  0  0
   -3.4423   -3.9877    0.8887 C   0  0  0  1  0  0  0  0  0  0  0  0
   -3.5630   -4.6581   -0.4529 C   0  0  0  1  0  0  0  0  0  0  0  0
    4.8027    6.2297   -2.8031 C   0  0  0  1  0  0  0  0  0  0  0  0
   -4.8868   -5.2386   -0.8168 C   0  0  0  1  0  0  0  0  0  0  0  0
   -4.9931   -5.9805   -2.1427 C   0  0  0  1  0  0  0  0  0  0  0  0
   -6.3395   -6.5760   -2.3720 C   0  0  0  1  0  0  0  0  0  0  0  0
  -10.9024    1.7355   -5.1176 H   0  0  0  1  0  0  0  0  0  0  0  0
  -12.8282    2.6386    0.2711 H   0  0  0  1  0  0  0  0  0  0  0  0
  -11.5339    3.6509    0.8647 H   0  0  0  1  0  0  0  0  0  0  0  0
  -11.4222    1.9132    1.0124 H   0  0  0  1  0  0  0  0  0  0  0  0
  -11.4820    0.4234   -6.9332 H   0  0  0  1  0  0  0  0  0  0  0  0
  -12.9310    0.2755   -5.9683 H   0  0  0  1  0  0  0  0  0  0  0  0
  -11.6871   -0.9482   -5.8706 H   0  0  0  1  0  0  0  0  0  0  0  0
    1.6313    1.0257    0.4758 H   0  0  0  1  0  0  0  0  0  0  0  0
  -10.9214    0.6567   -0.8766 H   0  0  0  1  0  0  0  0  0  0  0  0
   -8.4554    1.7224   -0.8513 H   0  0  0  1  0  0  0  0  0  0  0  0
   -7.7227    2.4437   -2.2645 H   0  0  0  1  0  0  0  0  0  0  0  0
   -8.8785   -0.3179   -2.2373 H   0  0  0  1  0  0  0  0  0  0  0  0
   -8.3683    0.6090   -3.6283 H   0  0  0  1  0  0  0  0  0  0  0  0
   -6.0651    0.6755   -2.3152 H   0  0  0  1  0  0  0  0  0  0  0  0
   -6.8033   -0.0628   -0.9138 H   0  0  0  1  0  0  0  0  0  0  0  0
    0.5233    4.4309   -0.4639 H   0  0  0  1  0  0  0  0  0  0  0  0
    0.9893    2.9517   -1.2695 H   0  0  0  1  0  0  0  0  0  0  0  0
  -10.1211    2.2233   -3.2376 H   0  0  0  1  0  0  0  0  0  0  0  0
   -5.5209    2.6407   -0.9934 H   0  0  0  1  0  0  0  0  0  0  0  0
   -6.2595    1.9028    0.4080 H   0  0  0  1  0  0  0  0  0  0  0  0
   -1.3694   -1.6635    1.0418 H   0  0  0  1  0  0  0  0  0  0  0  0
   -2.0594   -2.2708   -0.4445 H   0  0  0  1  0  0  0  0  0  0  0  0
    0.9512    3.4847    1.6638 H   0  0  0  1  0  0  0  0  0  0  0  0
    3.2314    3.1812   -0.3604 H   0  0  0  1  0  0  0  0  0  0  0  0
    2.7577    4.6816    0.4003 H   0  0  0  1  0  0  0  0  0  0  0  0
   -0.2112    0.2731    0.6179 H   0  0  0  1  0  0  0  0  0  0  0  0
    2.2785    5.5452   -1.8995 H   0  0  0  1  0  0  0  0  0  0  0  0
    3.0842    4.1171   -2.5040 H   0  0  0  1  0  0  0  0  0  0  0  0
   -1.2757    2.9606    1.0575 H   0  0  0  1  0  0  0  0  0  0  0  0
    5.1020    4.7663   -1.3013 H   0  0  0  1  0  0  0  0  0  0  0  0
    4.2924    6.2126   -0.7474 H   0  0  0  1  0  0  0  0  0  0  0  0
   -3.3145   -2.6000    2.2625 H   0  0  0  1  0  0  0  0  0  0  0  0
   -3.7458   -4.6035    1.6698 H   0  0  0  1  0  0  0  0  0  0  0  0
   -2.8468   -5.4526   -0.4794 H   0  0  0  1  0  0  0  0  0  0  0  0
   -3.3169   -3.9304   -1.1977 H   0  0  0  1  0  0  0  0  0  0  0  0
    4.9011    5.5286   -3.6053 H   0  0  0  1  0  0  0  0  0  0  0  0
    5.7447    6.7063   -2.6287 H   0  0  0  1  0  0  0  0  0  0  0  0
    4.0718    6.9672   -3.0618 H   0  0  0  1  0  0  0  0  0  0  0  0
   -5.5922   -4.4344   -0.8431 H   0  0  0  1  0  0  0  0  0  0  0  0
   -5.1578   -5.9263   -0.0431 H   0  0  0  1  0  0  0  0  0  0  0  0
   -4.2670   -6.7664   -2.1524 H   0  0  0  1  0  0  0  0  0  0  0  0
   -4.7855   -5.2926   -2.9355 H   0  0  0  1  0  0  0  0  0  0  0  0
  1 34  1  0  0  0  0
  2  4  1  0  0  0  0
  3  4  1  0  0  0  0
  4  5  1  0  0  0  0
  4 32  1  0  0  0  0
  6 10  1  0  0  0  0
  6 26  1  0  0  0  0
  6 42  1  0  0  0  0
  7  8  1  0  0  0  0
  7  9  2  0  0  0  0
  7 13  1  0  0  0  0
  8 43  1  0  0  0  0
  8 44  1  0  0  0  0
  8 45  1  0  0  0  0
 10 46  1  0  0  0  0
 10 47  1  0  0  0  0
 10 48  1  0  0  0  0
 11 27  1  0  0  0  0
 11 49  1  0  0  0  0
 12 26  2  0  0  0  0
 13 23  1  0  0  0  0
 13 50  1  0  0  0  0
 14 41  1  0  0  0  0
 15 24  1  0  0  0  0
 15 32  4  0  0  0  0
 15 34  4  0  0  0  0
 16 41  2  0  0  0  0
 17 18  1  0  0  0  0
 17 20  1  0  0  0  0
 17 51  1  0  0  0  0
 17 52  1  0  0  0  0
 18 23  1  0  0  0  0
 18 53  1  0  0  0  0
 18 54  1  0  0  0  0
 19 21  4  0  0  0  0
 19 29  1  0  0  0  0
 19 32  4  0  0  0  0
 20 24  1  0  0  0  0
 20 55  1  0  0  0  0
 20 56  1  0  0  0  0
 21 25  1  0  0  0  0
 21 34  4  0  0  0  0
 22 27  1  0  0  0  0
 22 28  1  0  0  0  0
 22 57  1  0  0  0  0
 22 58  1  0  0  0  0
 23 26  1  0  0  0  0
 23 59  1  0  0  0  0
 24 60  1  0  0  0  0
 24 61  1  0  0  0  0
 25 35  1  0  0  0  0
 25 62  1  0  0  0  0
 25 63  1  0  0  0  0
 27 31  1  0  0  0  0
 27 64  1  0  0  0  0
 28 30  1  0  0  0  0
 28 65  1  0  0  0  0
 28 66  1  0  0  0  0
 29 31  2  0  0  0  0
 29 67  1  0  0  0  0
 30 33  1  0  0  0  0
 30 68  1  0  0  0  0
 30 69  1  0  0  0  0
 31 70  1  0  0  0  0
 33 38  1  0  0  0  0
 33 71  1  0  0  0  0
 33 72  1  0  0  0  0
 35 36  2  0  0  0  0
 35 73  1  0  0  0  0
 36 37  1  0  0  0  0
 36 74  1  0  0  0  0
 37 39  1  0  0  0  0
 37 75  1  0  0  0  0
 37 76  1  0  0  0  0
 38 77  1  0  0  0  0
 38 78  1  0  0  0  0
 38 79  1  0  0  0  0
 39 40  1  0  0  0  0
 39 80  1  0  0  0  0
 39 81  1  0  0  0  0
 40 41  1  0  0  0  0
 40 82  1  0  0  0  0
 40 83  1  0  0  0  0
M  END
> <ConfClashScore>
0 

> <ConfOneFourInteractionScore>
-0.993052 

> <ConfScore>
-0.136389 

> <ConfScorePBest>
0.00723574 

> <ConfTolerance>
1.67095 

$$$$
9548876
  PyMOL2.2          3D                             0

 83 83  0  0  0  0  0  0  0  0999 V2000
   -5.0067   -1.0390   -0.1128 H   0  0  0  1  0  0  0  0  0  0  0  0
   -2.2487    3.4364   -0.6127 H   0  0  0  1  0  0  0  0  0  0  0  0
   -3.1961    3.6288    0.8426 H   0  0  0  1  0  0  0  0  0  0  0  0
   -3.1732    3.1905   -0.1332 C   0  0  0  1  0  0  0  0  0  0  0  0
   -3.9879    3.5694   -0.7143 H   0  0  0  1  0  0  0  0  0  0  0  0
  -10.3844   -0.1167    4.3948 N   0  0  0  1  0  0  0  0  0  0  0  0
   -8.7817   -2.6802    2.6674 C   0  0  0  1  0  0  0  0  0  0  0  0
   -9.7068   -3.5333    1.8215 C   0  0  0  1  0  0  0  0  0  0  0  0
   -7.9917   -3.1884    3.4585 O   0  0  0  1  0  0  0  0  0  0  0  0
  -11.2925    0.1817    5.4921 C   0  0  0  1  0  0  0  0  0  0  0  0
    2.2954    0.3349   -0.6174 O   0  0  0  1  0  0  0  0  0  0  0  0
   -8.5504   -0.0405    5.7052 O   0  0  0  1  0  0  0  0  0  0  0  0
   -8.8875   -1.3599    2.4919 N   0  0  0  1  0  0  0  0  0  0  0  0
   -3.9352   -8.5881    0.3789 O   0  5  0  1  0  0  0  0  0  0  0  0
   -4.4723    1.0534   -0.2051 N   0  0  0  1  0  0  0  0  0  0  0  0
   -3.7368   -7.9783   -1.8036 O   0  0  0  1  0  0  0  0  0  0  0  0
   -6.9879    0.7358    1.4447 C   0  0  0  1  0  0  0  0  0  0  0  0
   -7.9329    0.9048    2.6187 C   0  0  0  1  0  0  0  0  0  0  0  0
   -2.3238    0.7638    0.2852 C   0  0  0  1  0  0  0  0  0  0  0  0
   -6.5900    1.9813    0.6763 C   0  0  0  1  0  0  0  0  0  0  0  0
   -2.9478   -0.4922    0.2764 C   0  0  0  1  0  0  0  0  0  0  0  0
    1.8071    1.7400    1.2832 C   0  0  0  1  0  0  0  0  0  0  0  0
   -8.2185   -0.4040    3.3617 C   0  0  0  1  0  0  0  0  0  0  0  0
   -5.7462    1.6890   -0.5432 C   0  0  0  1  0  0  0  0  0  0  0  0
   -2.2819   -1.8196    0.5523 C   0  0  0  1  0  0  0  0  0  0  0  0
   -9.0651   -0.1417    4.6037 C   0  0  0  1  0  0  0  0  0  0  0  0
    1.5237    0.4094    0.5798 C   0  0  0  1  0  0  0  0  0  0  0  0
    1.7386    2.9957    0.4566 C   0  0  0  1  0  0  0  0  0  0  0  0
   -0.9145    1.0157    0.5608 C   0  0  0  1  0  0  0  0  0  0  0  0
    2.0107    4.2860    1.2056 C   0  0  0  1  0  0  0  0  0  0  0  0
    0.0771    0.2186    0.2507 C   0  0  0  1  0  0  0  0  0  0  0  0
   -3.2940    1.7101   -0.0154 C   0  0  0  1  0  0  0  0  0  0  0  0
    1.8814    5.5255    0.3367 C   0  0  0  1  0  0  0  0  0  0  0  0
   -4.2808   -0.2989   -0.0298 C   0  0  0  1  0  0  0  0  0  0  0  0
   -2.6982   -2.3991    1.8668 C   0  0  0  1  0  0  0  0  0  0  0  0
   -3.4036   -3.4924    2.0637 C   0  0  0  1  0  0  0  0  0  0  0  0
   -4.1941   -4.2014    1.0103 C   0  0  0  1  0  0  0  0  0  0  0  0
    1.8694    6.8180    1.1308 C   0  0  0  1  0  0  0  0  0  0  0  0
   -3.6860   -5.6060    0.7290 C   0  0  0  1  0  0  0  0  0  0  0  0
   -4.5870   -6.3968   -0.2056 C   0  0  0  1  0  0  0  0  0  0  0  0
   -4.0460   -7.7106   -0.6542 C   0  0  0  1  0  0  0  0  0  0  0  0
  -10.7415   -0.2997    3.5006 H   0  0  0  1  0  0  0  0  0  0  0  0
  -10.5264   -3.8727    2.4199 H   0  0  0  1  0  0  0  0  0  0  0  0
   -9.1678   -4.3770    1.4440 H   0  0  0  1  0  0  0  0  0  0  0  0
  -10.0792   -2.9523    1.0038 H   0  0  0  1  0  0  0  0  0  0  0  0
  -12.0559    0.8501    5.1524 H   0  0  0  1  0  0  0  0  0  0  0  0
  -10.7477    0.6396    6.2911 H   0  0  0  1  0  0  0  0  0  0  0  0
  -11.7416   -0.7251    5.8397 H   0  0  0  1  0  0  0  0  0  0  0  0
    2.9094    1.0723   -0.6493 H   0  0  0  1  0  0  0  0  0  0  0  0
   -9.4346   -1.0235    1.7517 H   0  0  0  1  0  0  0  0  0  0  0  0
   -7.4556    0.0683    0.7514 H   0  0  0  1  0  0  0  0  0  0  0  0
   -6.0898    0.2905    1.8188 H   0  0  0  1  0  0  0  0  0  0  0  0
   -8.8594    1.2973    2.2547 H   0  0  0  1  0  0  0  0  0  0  0  0
   -7.4974    1.5980    3.3077 H   0  0  0  1  0  0  0  0  0  0  0  0
   -6.0324    2.6193    1.3296 H   0  0  0  1  0  0  0  0  0  0  0  0
   -7.4802    2.4839    0.3603 H   0  0  0  1  0  0  0  0  0  0  0  0
    2.7935    1.6808    1.6935 H   0  0  0  1  0  0  0  0  0  0  0  0
    1.0958    1.8402    2.0763 H   0  0  0  1  0  0  0  0  0  0  0  0
   -7.2831   -0.8160    3.6780 H   0  0  0  1  0  0  0  0  0  0  0  0
   -6.2937    1.0363   -1.1906 H   0  0  0  1  0  0  0  0  0  0  0  0
   -5.5460    2.6096   -1.0504 H   0  0  0  1  0  0  0  0  0  0  0  0
   -1.2213   -1.6780    0.5588 H   0  0  0  1  0  0  0  0  0  0  0  0
   -2.5458   -2.5055   -0.2255 H   0  0  0  1  0  0  0  0  0  0  0  0
    1.8202   -0.3794    1.2391 H   0  0  0  1  0  0  0  0  0  0  0  0
    0.7571    3.0598    0.0354 H   0  0  0  1  0  0  0  0  0  0  0  0
    2.4598    2.9125   -0.3295 H   0  0  0  1  0  0  0  0  0  0  0  0
   -0.6763    1.9046    1.0453 H   0  0  0  1  0  0  0  0  0  0  0  0
    3.0060    4.2480    1.5964 H   0  0  0  1  0  0  0  0  0  0  0  0
    1.3127    4.3633    2.0129 H   0  0  0  1  0  0  0  0  0  0  0  0
   -0.1678   -0.6402   -0.2824 H   0  0  0  1  0  0  0  0  0  0  0  0
    0.9677    5.4585   -0.2161 H   0  0  0  1  0  0  0  0  0  0  0  0
    2.7083    5.5519   -0.3419 H   0  0  0  1  0  0  0  0  0  0  0  0
   -2.3977   -1.8819    2.7176 H   0  0  0  1  0  0  0  0  0  0  0  0
   -3.4120   -3.8934    3.0232 H   0  0  0  1  0  0  0  0  0  0  0  0
   -4.1424   -3.6329    0.1053 H   0  0  0  1  0  0  0  0  0  0  0  0
   -5.2120   -4.2658    1.3339 H   0  0  0  1  0  0  0  0  0  0  0  0
    2.7806    7.3517    0.9582 H   0  0  0  1  0  0  0  0  0  0  0  0
    1.7790    6.5949    2.1734 H   0  0  0  1  0  0  0  0  0  0  0  0
    1.0402    7.4190    0.8209 H   0  0  0  1  0  0  0  0  0  0  0  0
   -3.6141   -6.1330    1.6574 H   0  0  0  1  0  0  0  0  0  0  0  0
   -2.7158   -5.5330    0.2837 H   0  0  0  1  0  0  0  0  0  0  0  0
   -4.7663   -5.7994   -1.0750 H   0  0  0  1  0  0  0  0  0  0  0  0
   -5.5120   -6.5764    0.3014 H   0  0  0  1  0  0  0  0  0  0  0  0
  1 34  1  0  0  0  0
  2  4  1  0  0  0  0
  3  4  1  0  0  0  0
  4  5  1  0  0  0  0
  4 32  1  0  0  0  0
  6 10  1  0  0  0  0
  6 26  1  0  0  0  0
  6 42  1  0  0  0  0
  7  8  1  0  0  0  0
  7  9  2  0  0  0  0
  7 13  1  0  0  0  0
  8 43  1  0  0  0  0
  8 44  1  0  0  0  0
  8 45  1  0  0  0  0
 10 46  1  0  0  0  0
 10 47  1  0  0  0  0
 10 48  1  0  0  0  0
 11 27  1  0  0  0  0
 11 49  1  0  0  0  0
 12 26  2  0  0  0  0
 13 23  1  0  0  0  0
 13 50  1  0  0  0  0
 14 41  1  0  0  0  0
 15 24  1  0  0  0  0
 15 32  4  0  0  0  0
 15 34  4  0  0  0  0
 16 41  2  0  0  0  0
 17 18  1  0  0  0  0
 17 20  1  0  0  0  0
 17 51  1  0  0  0  0
 17 52  1  0  0  0  0
 18 23  1  0  0  0  0
 18 53  1  0  0  0  0
 18 54  1  0  0  0  0
 19 21  4  0  0  0  0
 19 29  1  0  0  0  0
 19 32  4  0  0  0  0
 20 24  1  0  0  0  0
 20 55  1  0  0  0  0
 20 56  1  0  0  0  0
 21 25  1  0  0  0  0
 21 34  4  0  0  0  0
 22 27  1  0  0  0  0
 22 28  1  0  0  0  0
 22 57  1  0  0  0  0
 22 58  1  0  0  0  0
 23 26  1  0  0  0  0
 23 59  1  0  0  0  0
 24 60  1  0  0  0  0
 24 61  1  0  0  0  0
 25 35  1  0  0  0  0
 25 62  1  0  0  0  0
 25 63  1  0  0  0  0
 27 31  1  0  0  0  0
 27 64  1  0  0  0  0
 28 30  1  0  0  0  0
 28 65  1  0  0  0  0
 28 66  1  0  0  0  0
 29 31  2  0  0  0  0
 29 67  1  0  0  0  0
 30 33  1  0  0  0  0
 30 68  1  0  0  0  0
 30 69  1  0  0  0  0
 31 70  1  0  0  0  0
 33 38  1  0  0  0  0
 33 71  1  0  0  0  0
 33 72  1  0  0  0  0
 35 36  2  0  0  0  0
 35 73  1  0  0  0  0
 36 37  1  0  0  0  0
 36 74  1  0  0  0  0
 37 39  1  0  0  0  0
 37 75  1  0  0  0  0
 37 76  1  0  0  0  0
 38 77  1  0  0  0  0
 38 78  1  0  0  0  0
 38 79  1  0  0  0  0
 39 40  1  0  0  0  0
 39 80  1  0  0  0  0
 39 81  1  0  0  0  0
 40 41  1  0  0  0  0
 40 82  1  0  0  0  0
 40 83  1  0  0  0  0
M  END
> <ConfClashScore>
0 

> <ConfOneFourInteractionScore>
-0.988166 

> <ConfScore>
-0.133551 

> <ConfScorePBest>
0.00720726 

> <ConfTolerance>
1.81428 

$$$$
9548876
  PyMOL2.2          3D                             0

 83 83  0  0  0  0  0  0  0  0999 V2000
   -4.9962   -1.0287   -0.1430 H   0  0  0  1  0  0  0  0  0  0  0  0
   -3.7132    3.6838    0.6402 H   0  0  0  1  0  0  0  0  0  0  0  0
   -3.6393    3.4517   -1.0899 H   0  0  0  1  0  0  0  0  0  0  0  0
   -3.1937    3.1885   -0.1534 C   0  0  0  1  0  0  0  0  0  0  0  0
   -2.1668    3.4893   -0.1495 H   0  0  0  1  0  0  0  0  0  0  0  0
   -7.1122    5.6372   -5.6945 N   0  0  0  1  0  0  0  0  0  0  0  0
  -10.5905    3.5095   -4.1596 C   0  0  0  1  0  0  0  0  0  0  0  0
  -11.7142    2.4922   -4.1181 C   0  0  0  1  0  0  0  0  0  0  0  0
  -10.8050    4.7057   -3.9683 O   0  0  0  1  0  0  0  0  0  0  0  0
   -6.8188    6.4167   -6.8878 C   0  0  0  1  0  0  0  0  0  0  0  0
    1.8692    1.3610    0.7449 O   0  0  0  1  0  0  0  0  0  0  0  0
   -8.4889    4.2051   -6.7314 O   0  0  0  1  0  0  0  0  0  0  0  0
   -9.3679    3.0178   -4.4157 N   0  0  0  1  0  0  0  0  0  0  0  0
    2.0614   -0.2939   -3.6124 O   0  5  0  1  0  0  0  0  0  0  0  0
   -4.4579    1.0646   -0.1742 N   0  0  0  1  0  0  0  0  0  0  0  0
    3.3479   -2.0184   -2.8740 O   0  0  0  1  0  0  0  0  0  0  0  0
   -7.0348    2.6597   -2.4927 C   0  0  0  1  0  0  0  0  0  0  0  0
   -6.9706    2.9829   -3.9731 C   0  0  0  1  0  0  0  0  0  0  0  0
   -2.3126    0.7577    0.3195 C   0  0  0  1  0  0  0  0  0  0  0  0
   -5.7913    2.0234   -1.9724 C   0  0  0  1  0  0  0  0  0  0  0  0
   -2.9386   -0.4965    0.2724 C   0  0  0  1  0  0  0  0  0  0  0  0
    1.4831    1.6715    3.1169 C   0  0  0  1  0  0  0  0  0  0  0  0
   -8.1650    3.8574   -4.3926 C   0  0  0  1  0  0  0  0  0  0  0  0
   -5.7289    1.7115   -0.5015 C   0  0  0  1  0  0  0  0  0  0  0  0
   -2.2746   -1.8356    0.5155 C   0  0  0  1  0  0  0  0  0  0  0  0
   -7.9586    4.6035   -5.7074 C   0  0  0  1  0  0  0  0  0  0  0  0
    1.2477    0.7809    1.8909 C   0  0  0  1  0  0  0  0  0  0  0  0
    2.9520    1.8390    3.4665 C   0  0  0  1  0  0  0  0  0  0  0  0
   -0.9028    0.9997    0.6101 C   0  0  0  1  0  0  0  0  0  0  0  0
    3.1105    2.5579    4.7929 C   0  0  0  1  0  0  0  0  0  0  0  0
   -0.2178    0.6001    1.6522 C   0  0  0  1  0  0  0  0  0  0  0  0
   -3.2796    1.7137    0.0401 C   0  0  0  1  0  0  0  0  0  0  0  0
    4.5955    2.7476    5.0615 C   0  0  0  1  0  0  0  0  0  0  0  0
   -4.2696   -0.2924   -0.0356 C   0  0  0  1  0  0  0  0  0  0  0  0
   -2.2912   -2.7594   -0.6580 C   0  0  0  1  0  0  0  0  0  0  0  0
   -1.2113   -3.3437   -1.1311 C   0  0  0  1  0  0  0  0  0  0  0  0
    0.1035   -3.4369   -0.4067 C   0  0  0  1  0  0  0  0  0  0  0  0
    4.8152    3.5262    6.3483 C   0  0  0  1  0  0  0  0  0  0  0  0
    1.2929   -3.0807   -1.2835 C   0  0  0  1  0  0  0  0  0  0  0  0
    1.0776   -1.8235   -2.1088 C   0  0  0  1  0  0  0  0  0  0  0  0
    2.2847   -1.4202   -2.8837 C   0  0  0  1  0  0  0  0  0  0  0  0
   -6.6736    5.8788   -4.8521 H   0  0  0  1  0  0  0  0  0  0  0  0
  -11.3401    1.5345   -4.4147 H   0  0  0  1  0  0  0  0  0  0  0  0
  -12.4928    2.7936   -4.7873 H   0  0  0  1  0  0  0  0  0  0  0  0
  -12.1025    2.4305   -3.1230 H   0  0  0  1  0  0  0  0  0  0  0  0
   -7.5322    6.1841   -7.6507 H   0  0  0  1  0  0  0  0  0  0  0  0
   -5.8351    6.1797   -7.2356 H   0  0  0  1  0  0  0  0  0  0  0  0
   -6.8736    7.4596   -6.6547 H   0  0  0  1  0  0  0  0  0  0  0  0
    1.2932    1.2620   -0.0166 H   0  0  0  1  0  0  0  0  0  0  0  0
   -9.2757    2.0650   -4.6254 H   0  0  0  1  0  0  0  0  0  0  0  0
   -7.8532    1.9908   -2.3267 H   0  0  0  1  0  0  0  0  0  0  0  0
   -7.2016    3.5689   -1.9539 H   0  0  0  1  0  0  0  0  0  0  0  0
   -6.9899    2.0710   -4.5325 H   0  0  0  1  0  0  0  0  0  0  0  0
   -6.0616    3.5087   -4.1784 H   0  0  0  1  0  0  0  0  0  0  0  0
   -4.9781    2.6825   -2.1942 H   0  0  0  1  0  0  0  0  0  0  0  0
   -5.6586    1.1022   -2.5004 H   0  0  0  1  0  0  0  0  0  0  0  0
    0.9826    1.2338    3.9553 H   0  0  0  1  0  0  0  0  0  0  0  0
    1.0693    2.6381    2.9187 H   0  0  0  1  0  0  0  0  0  0  0  0
   -8.2952    4.5953   -3.6288 H   0  0  0  1  0  0  0  0  0  0  0  0
   -5.8164    2.6205    0.0562 H   0  0  0  1  0  0  0  0  0  0  0  0
   -6.5350    1.0562   -0.2450 H   0  0  0  1  0  0  0  0  0  0  0  0
   -2.7807   -2.3168    1.3262 H   0  0  0  1  0  0  0  0  0  0  0  0
   -1.2547   -1.6582    0.7861 H   0  0  0  1  0  0  0  0  0  0  0  0
    1.6785   -0.1787    2.0866 H   0  0  0  1  0  0  0  0  0  0  0  0
    3.4326    2.4089    2.6990 H   0  0  0  1  0  0  0  0  0  0  0  0
    3.4089    0.8737    3.5338 H   0  0  0  1  0  0  0  0  0  0  0  0
   -0.3793    1.5565   -0.0953 H   0  0  0  1  0  0  0  0  0  0  0  0
    2.6737    1.9730    5.5753 H   0  0  0  1  0  0  0  0  0  0  0  0
    2.6270    3.5113    4.7472 H   0  0  0  1  0  0  0  0  0  0  0  0
   -0.7505    0.1031    2.3943 H   0  0  0  1  0  0  0  0  0  0  0  0
    5.0335    3.2855    4.2468 H   0  0  0  1  0  0  0  0  0  0  0  0
    5.0618    1.7884    5.1479 H   0  0  0  1  0  0  0  0  0  0  0  0
   -3.2011   -2.9502   -1.1242 H   0  0  0  1  0  0  0  0  0  0  0  0
   -1.2714   -3.7731   -2.0764 H   0  0  0  1  0  0  0  0  0  0  0  0
    0.2281   -4.4397   -0.0548 H   0  0  0  1  0  0  0  0  0  0  0  0
    0.0815   -2.7660    0.4265 H   0  0  0  1  0  0  0  0  0  0  0  0
    4.9045    2.8440    7.1678 H   0  0  0  1  0  0  0  0  0  0  0  0
    3.9838    4.1784    6.5165 H   0  0  0  1  0  0  0  0  0  0  0  0
    5.7118    4.1044    6.2664 H   0  0  0  1  0  0  0  0  0  0  0  0
    1.4793   -3.8965   -1.9503 H   0  0  0  1  0  0  0  0  0  0  0  0
    2.1455   -2.9317   -0.6544 H   0  0  0  1  0  0  0  0  0  0  0  0
    0.8138   -1.0238   -1.4487 H   0  0  0  1  0  0  0  0  0  0  0  0
    0.2757   -1.9997   -2.7949 H   0  0  0  1  0  0  0  0  0  0  0  0
  1 34  1  0  0  0  0
  2  4  1  0  0  0  0
  3  4  1  0  0  0  0
  4  5  1  0  0  0  0
  4 32  1  0  0  0  0
  6 10  1  0  0  0  0
  6 26  1  0  0  0  0
  6 42  1  0  0  0  0
  7  8  1  0  0  0  0
  7  9  2  0  0  0  0
  7 13  1  0  0  0  0
  8 43  1  0  0  0  0
  8 44  1  0  0  0  0
  8 45  1  0  0  0  0
 10 46  1  0  0  0  0
 10 47  1  0  0  0  0
 10 48  1  0  0  0  0
 11 27  1  0  0  0  0
 11 49  1  0  0  0  0
 12 26  2  0  0  0  0
 13 23  1  0  0  0  0
 13 50  1  0  0  0  0
 14 41  1  0  0  0  0
 15 24  1  0  0  0  0
 15 32  4  0  0  0  0
 15 34  4  0  0  0  0
 16 41  2  0  0  0  0
 17 18  1  0  0  0  0
 17 20  1  0  0  0  0
 17 51  1  0  0  0  0
 17 52  1  0  0  0  0
 18 23  1  0  0  0  0
 18 53  1  0  0  0  0
 18 54  1  0  0  0  0
 19 21  4  0  0  0  0
 19 29  1  0  0  0  0
 19 32  4  0  0  0  0
 20 24  1  0  0  0  0
 20 55  1  0  0  0  0
 20 56  1  0  0  0  0
 21 25  1  0  0  0  0
 21 34  4  0  0  0  0
 22 27  1  0  0  0  0
 22 28  1  0  0  0  0
 22 57  1  0  0  0  0
 22 58  1  0  0  0  0
 23 26  1  0  0  0  0
 23 59  1  0  0  0  0
 24 60  1  0  0  0  0
 24 61  1  0  0  0  0
 25 35  1  0  0  0  0
 25 62  1  0  0  0  0
 25 63  1  0  0  0  0
 27 31  1  0  0  0  0
 27 64  1  0  0  0  0
 28 30  1  0  0  0  0
 28 65  1  0  0  0  0
 28 66  1  0  0  0  0
 29 31  2  0  0  0  0
 29 67  1  0  0  0  0
 30 33  1  0  0  0  0
 30 68  1  0  0  0  0
 30 69  1  0  0  0  0
 31 70  1  0  0  0  0
 33 38  1  0  0  0  0
 33 71  1  0  0  0  0
 33 72  1  0  0  0  0
 35 36  2  0  0  0  0
 35 73  1  0  0  0  0
 36 37  1  0  0  0  0
 36 74  1  0  0  0  0
 37 39  1  0  0  0  0
 37 75  1  0  0  0  0
 37 76  1  0  0  0  0
 38 77  1  0  0  0  0
 38 78  1  0  0  0  0
 38 79  1  0  0  0  0
 39 40  1  0  0  0  0
 39 80  1  0  0  0  0
 39 81  1  0  0  0  0
 40 41  1  0  0  0  0
 40 82  1  0  0  0  0
 40 83  1  0  0  0  0
M  END
> <ConfClashScore>
0 

> <ConfOneFourInteractionScore>
-0.99476 

> <ConfScore>
-0.127447 

> <ConfScorePBest>
0.00717878 

> <ConfTolerance>
1.50605 

$$$$
9548876
  PyMOL2.2          3D                             0

 83 83  0  0  0  0  0  0  0  0999 V2000
   -5.0207   -1.0294   -0.1143 H   0  0  0  1  0  0  0  0  0  0  0  0
   -2.6352    3.4324   -1.0312 H   0  0  0  1  0  0  0  0  0  0  0  0
   -2.6259    3.5690    0.7106 H   0  0  0  1  0  0  0  0  0  0  0  0
   -3.1640    3.1901   -0.1331 C   0  0  0  1  0  0  0  0  0  0  0  0
   -4.1382    3.6315   -0.1629 H   0  0  0  1  0  0  0  0  0  0  0  0
  -10.4903    4.8253    3.6527 N   0  0  0  1  0  0  0  0  0  0  0  0
  -10.5622    5.8349    0.8588 C   0  0  0  1  0  0  0  0  0  0  0  0
  -10.0261    7.1973    0.4641 C   0  0  0  1  0  0  0  0  0  0  0  0
  -11.7712    5.6278    0.9545 O   0  0  0  1  0  0  0  0  0  0  0  0
  -11.2230    5.1278    4.8731 C   0  0  0  1  0  0  0  0  0  0  0  0
    1.9470    1.5846    0.7033 O   0  0  0  1  0  0  0  0  0  0  0  0
  -11.4626    2.8320    3.3323 O   0  0  0  1  0  0  0  0  0  0  0  0
   -9.6380    4.8896    1.0918 N   0  0  0  1  0  0  0  0  0  0  0  0
    4.0290   -5.0121   -1.2762 O   0  5  0  1  0  0  0  0  0  0  0  0
   -4.4748    1.0602   -0.2059 N   0  0  0  1  0  0  0  0  0  0  0  0
    3.7994   -5.8861    0.8114 O   0  0  0  1  0  0  0  0  0  0  0  0
   -7.9213    2.5592    0.5057 C   0  0  0  1  0  0  0  0  0  0  0  0
   -8.7157    2.7317    1.7912 C   0  0  0  1  0  0  0  0  0  0  0  0
   -2.3280    0.7586    0.2850 C   0  0  0  1  0  0  0  0  0  0  0  0
   -6.5747    1.9129    0.7169 C   0  0  0  1  0  0  0  0  0  0  0  0
   -2.9589   -0.4939    0.2757 C   0  0  0  1  0  0  0  0  0  0  0  0
    1.2809    3.7831   -0.0439 C   0  0  0  1  0  0  0  0  0  0  0  0
   -9.9837    3.5772    1.6139 C   0  0  0  1  0  0  0  0  0  0  0  0
   -5.7692    1.6524   -0.5445 C   0  0  0  1  0  0  0  0  0  0  0  0
   -2.2577   -1.7833    0.5565 C   0  0  0  1  0  0  0  0  0  0  0  0
  -10.6894    3.6996    2.9611 C   0  0  0  1  0  0  0  0  0  0  0  0
    0.9866    2.6204    0.9080 C   0  0  0  1  0  0  0  0  0  0  0  0
    2.4101    4.6332    0.4834 C   0  0  0  1  0  0  0  0  0  0  0  0
   -0.9175    1.0028    0.5613 C   0  0  0  1  0  0  0  0  0  0  0  0
    2.8055    5.8127   -0.3917 C   0  0  0  1  0  0  0  0  0  0  0  0
   -0.3892    2.1317    0.7285 C   0  0  0  1  0  0  0  0  0  0  0  0
   -3.2929    1.7103   -0.0156 C   0  0  0  1  0  0  0  0  0  0  0  0
    3.8184    6.7347    0.2627 C   0  0  0  1  0  0  0  0  0  0  0  0
   -4.2908   -0.2932   -0.0309 C   0  0  0  1  0  0  0  0  0  0  0  0
   -1.3291   -1.8819    1.7249 C   0  0  0  1  0  0  0  0  0  0  0  0
   -0.0690   -2.2455    1.7046 C   0  0  0  1  0  0  0  0  0  0  0  0
    0.8256   -2.3500    0.4985 C   0  0  0  1  0  0  0  0  0  0  0  0
    4.4159    7.7504   -0.6961 C   0  0  0  1  0  0  0  0  0  0  0  0
    1.4838   -3.7195    0.3593 C   0  0  0  1  0  0  0  0  0  0  0  0
    3.0057   -3.6614    0.3660 C   0  0  0  1  0  0  0  0  0  0  0  0
    3.6411   -4.9657    0.0264 C   0  0  0  1  0  0  0  0  0  0  0  0
   -9.8277    5.4696    3.3268 H   0  0  0  1  0  0  0  0  0  0  0  0
   -8.9780    7.2432    0.6742 H   0  0  0  1  0  0  0  0  0  0  0  0
  -10.5350    7.9557    1.0214 H   0  0  0  1  0  0  0  0  0  0  0  0
  -10.1871    7.3541   -0.5821 H   0  0  0  1  0  0  0  0  0  0  0  0
  -11.1129    4.3195    5.5655 H   0  0  0  1  0  0  0  0  0  0  0  0
  -12.2594    5.2612    4.6428 H   0  0  0  1  0  0  0  0  0  0  0  0
  -10.8355    6.0252    5.3083 H   0  0  0  1  0  0  0  0  0  0  0  0
    1.8308    0.9036    1.3698 H   0  0  0  1  0  0  0  0  0  0  0  0
   -8.6976    5.0910    0.9034 H   0  0  0  1  0  0  0  0  0  0  0  0
   -7.7697    3.5240    0.0685 H   0  0  0  1  0  0  0  0  0  0  0  0
   -8.4893    1.9486   -0.1647 H   0  0  0  1  0  0  0  0  0  0  0  0
   -8.0890    3.2079    2.5160 H   0  0  0  1  0  0  0  0  0  0  0  0
   -9.0005    1.7634    2.1465 H   0  0  0  1  0  0  0  0  0  0  0  0
   -6.7326    0.9747    1.2067 H   0  0  0  1  0  0  0  0  0  0  0  0
   -5.9973    2.5536    1.3501 H   0  0  0  1  0  0  0  0  0  0  0  0
    0.4031    4.3872   -0.1418 H   0  0  0  1  0  0  0  0  0  0  0  0
    1.5539    3.3919   -1.0017 H   0  0  0  1  0  0  0  0  0  0  0  0
  -10.6354    3.0766    0.9287 H   0  0  0  1  0  0  0  0  0  0  0  0
   -6.3107    0.9799   -1.1766 H   0  0  0  1  0  0  0  0  0  0  0  0
   -5.6107    2.5769   -1.0594 H   0  0  0  1  0  0  0  0  0  0  0  0
   -1.6855   -2.0217   -0.3157 H   0  0  0  1  0  0  0  0  0  0  0  0
   -3.0162   -2.5243    0.6995 H   0  0  0  1  0  0  0  0  0  0  0  0
    1.0769    2.9879    1.9089 H   0  0  0  1  0  0  0  0  0  0  0  0
    3.2691    4.0057    0.5984 H   0  0  0  1  0  0  0  0  0  0  0  0
    2.1165    5.0155    1.4387 H   0  0  0  1  0  0  0  0  0  0  0  0
   -0.2949    0.1722    0.6255 H   0  0  0  1  0  0  0  0  0  0  0  0
    1.9258    6.3793   -0.6152 H   0  0  0  1  0  0  0  0  0  0  0  0
    3.2274    5.4351   -1.2996 H   0  0  0  1  0  0  0  0  0  0  0  0
   -1.0895    2.9004    0.7435 H   0  0  0  1  0  0  0  0  0  0  0  0
    4.6116    6.1381    0.6625 H   0  0  0  1  0  0  0  0  0  0  0  0
    3.3333    7.2625    1.0570 H   0  0  0  1  0  0  0  0  0  0  0  0
   -1.7256   -1.6353    2.6543 H   0  0  0  1  0  0  0  0  0  0  0  0
    0.3584   -2.4880    2.6212 H   0  0  0  1  0  0  0  0  0  0  0  0
    1.5938   -1.6095    0.5791 H   0  0  0  1  0  0  0  0  0  0  0  0
    0.2398   -2.1631   -0.3772 H   0  0  0  1  0  0  0  0  0  0  0  0
    4.9300    7.2393   -1.4831 H   0  0  0  1  0  0  0  0  0  0  0  0
    5.1046    8.3765   -0.1683 H   0  0  0  1  0  0  0  0  0  0  0  0
    3.6340    8.3507   -1.1121 H   0  0  0  1  0  0  0  0  0  0  0  0
    1.1650   -4.1568   -0.5637 H   0  0  0  1  0  0  0  0  0  0  0  0
    1.1642   -4.3339    1.1749 H   0  0  0  1  0  0  0  0  0  0  0  0
    3.3311   -3.3679    1.3421 H   0  0  0  1  0  0  0  0  0  0  0  0
    3.3218   -2.9319   -0.3502 H   0  0  0  1  0  0  0  0  0  0  0  0
  1 34  1  0  0  0  0
  2  4  1  0  0  0  0
  3  4  1  0  0  0  0
  4  5  1  0  0  0  0
  4 32  1  0  0  0  0
  6 10  1  0  0  0  0
  6 26  1  0  0  0  0
  6 42  1  0  0  0  0
  7  8  1  0  0  0  0
  7  9  2  0  0  0  0
  7 13  1  0  0  0  0
  8 43  1  0  0  0  0
  8 44  1  0  0  0  0
  8 45  1  0  0  0  0
 10 46  1  0  0  0  0
 10 47  1  0  0  0  0
 10 48  1  0  0  0  0
 11 27  1  0  0  0  0
 11 49  1  0  0  0  0
 12 26  2  0  0  0  0
 13 23  1  0  0  0  0
 13 50  1  0  0  0  0
 14 41  1  0  0  0  0
 15 24  1  0  0  0  0
 15 32  4  0  0  0  0
 15 34  4  0  0  0  0
 16 41  2  0  0  0  0
 17 18  1  0  0  0  0
 17 20  1  0  0  0  0
 17 51  1  0  0  0  0
 17 52  1  0  0  0  0
 18 23  1  0  0  0  0
 18 53  1  0  0  0  0
 18 54  1  0  0  0  0
 19 21  4  0  0  0  0
 19 29  1  0  0  0  0
 19 32  4  0  0  0  0
 20 24  1  0  0  0  0
 20 55  1  0  0  0  0
 20 56  1  0  0  0  0
 21 25  1  0  0  0  0
 21 34  4  0  0  0  0
 22 27  1  0  0  0  0
 22 28  1  0  0  0  0
 22 57  1  0  0  0  0
 22 58  1  0  0  0  0
 23 26  1  0  0  0  0
 23 59  1  0  0  0  0
 24 60  1  0  0  0  0
 24 61  1  0  0  0  0
 25 35  1  0  0  0  0
 25 62  1  0  0  0  0
 25 63  1  0  0  0  0
 27 31  1  0  0  0  0
 27 64  1  0  0  0  0
 28 30  1  0  0  0  0
 28 65  1  0  0  0  0
 28 66  1  0  0  0  0
 29 31  2  0  0  0  0
 29 67  1  0  0  0  0
 30 33  1  0  0  0  0
 30 68  1  0  0  0  0
 30 69  1  0  0  0  0
 31 70  1  0  0  0  0
 33 38  1  0  0  0  0
 33 71  1  0  0  0  0
 33 72  1  0  0  0  0
 35 36  2  0  0  0  0
 35 73  1  0  0  0  0
 36 37  1  0  0  0  0
 36 74  1  0  0  0  0
 37 39  1  0  0  0  0
 37 75  1  0  0  0  0
 37 76  1  0  0  0  0
 38 77  1  0  0  0  0
 38 78  1  0  0  0  0
 38 79  1  0  0  0  0
 39 40  1  0  0  0  0
 39 80  1  0  0  0  0
 39 81  1  0  0  0  0
 40 41  1  0  0  0  0
 40 82  1  0  0  0  0
 40 83  1  0  0  0  0
M  END
> <ConfClashScore>
0.00029096 

> <ConfOneFourInteractionScore>
-0.986959 

> <ConfScore>
-0.126767 

> <ConfScorePBest>
0.0071503 

> <ConfTolerance>
1.41206 

$$$$
9548876
  PyMOL2.2          3D                             0

 83 83  0  0  0  0  0  0  0  0999 V2000
   -5.0042   -1.0409   -0.1128 H   0  0  0  1  0  0  0  0  0  0  0  0
   -2.2549    3.5112    0.3082 H   0  0  0  1  0  0  0  0  0  0  0  0
   -3.9948    3.6556    0.3742 H   0  0  0  1  0  0  0  0  0  0  0  0
   -3.1754    3.1907   -0.1331 C   0  0  0  1  0  0  0  0  0  0  0  0
   -3.1911    3.4685   -1.1663 H   0  0  0  1  0  0  0  0  0  0  0  0
   -7.3514   -1.5247    4.8826 N   0  0  0  1  0  0  0  0  0  0  0  0
  -10.2901   -0.9711    4.8318 C   0  0  0  1  0  0  0  0  0  0  0  0
  -11.0805   -0.3607    5.9870 C   0  0  0  1  0  0  0  0  0  0  0  0
  -10.4115   -2.1556    4.5222 O   0  0  0  1  0  0  0  0  0  0  0  0
   -6.4590   -2.5067    5.4803 C   0  0  0  1  0  0  0  0  0  0  0  0
    1.6804    1.4217    1.7761 O   0  0  0  1  0  0  0  0  0  0  0  0
   -6.8727   -2.0647    2.7458 O   0  0  0  1  0  0  0  0  0  0  0  0
   -9.4770   -0.0994    4.2144 N   0  0  0  1  0  0  0  0  0  0  0  0
   -0.8070   -9.5101    1.8138 O   0  5  0  1  0  0  0  0  0  0  0  0
   -4.4721    1.0521   -0.2050 N   0  0  0  1  0  0  0  0  0  0  0  0
   -0.9515   -9.1208   -0.4227 O   0  0  0  1  0  0  0  0  0  0  0  0
   -7.0740    0.5897    1.3781 C   0  0  0  1  0  0  0  0  0  0  0  0
   -7.9920    0.8746    2.5569 C   0  0  0  1  0  0  0  0  0  0  0  0
   -2.3232    0.7649    0.2850 C   0  0  0  1  0  0  0  0  0  0  0  0
   -6.6728    1.7990    0.6468 C   0  0  0  1  0  0  0  0  0  0  0  0
   -2.9458   -0.4918    0.2762 C   0  0  0  1  0  0  0  0  0  0  0  0
    2.1239   -0.9012    1.3973 C   0  0  0  1  0  0  0  0  0  0  0  0
   -8.5827   -0.4294    3.1147 C   0  0  0  1  0  0  0  0  0  0  0  0
   -5.7476    1.6867   -0.5432 C   0  0  0  1  0  0  0  0  0  0  0  0
   -2.2784   -1.8184    0.5519 C   0  0  0  1  0  0  0  0  0  0  0  0
   -7.4961   -1.4037    3.5599 C   0  0  0  1  0  0  0  0  0  0  0  0
    1.5097    0.3691    0.8172 C   0  0  0  1  0  0  0  0  0  0  0  0
    2.1694   -2.0921    0.4586 C   0  0  0  1  0  0  0  0  0  0  0  0
   -0.9125    1.0187    0.5609 C   0  0  0  1  0  0  0  0  0  0  0  0
    2.9965   -3.2463    0.9914 C   0  0  0  1  0  0  0  0  0  0  0  0
    0.0825    0.2045    0.4179 C   0  0  0  1  0  0  0  0  0  0  0  0
   -3.2945    1.7101   -0.0154 C   0  0  0  1  0  0  0  0  0  0  0  0
    3.0803   -4.4207    0.0313 C   0  0  0  1  0  0  0  0  0  0  0  0
   -4.2791   -0.3000   -0.0298 C   0  0  0  1  0  0  0  0  0  0  0  0
   -2.2935   -2.7185   -0.6427 C   0  0  0  1  0  0  0  0  0  0  0  0
   -2.1743   -4.0226   -0.6496 C   0  0  0  1  0  0  0  0  0  0  0  0
   -1.6896   -4.8972    0.4801 C   0  0  0  1  0  0  0  0  0  0  0  0
    3.7527   -5.6432    0.6325 C   0  0  0  1  0  0  0  0  0  0  0  0
   -1.5734   -6.3442    0.0296 C   0  0  0  1  0  0  0  0  0  0  0  0
   -1.0350   -7.2698    1.1084 C   0  0  0  1  0  0  0  0  0  0  0  0
   -0.9303   -8.7056    0.7243 C   0  0  0  1  0  0  0  0  0  0  0  0
   -7.8640   -0.9316    5.4706 H   0  0  0  1  0  0  0  0  0  0  0  0
  -12.1252   -0.3850    5.7572 H   0  0  0  1  0  0  0  0  0  0  0  0
  -10.7714    0.6531    6.1339 H   0  0  0  1  0  0  0  0  0  0  0  0
  -10.8986   -0.9225    6.8793 H   0  0  0  1  0  0  0  0  0  0  0  0
   -6.1897   -2.1909    6.4666 H   0  0  0  1  0  0  0  0  0  0  0  0
   -5.5768   -2.5975    4.8818 H   0  0  0  1  0  0  0  0  0  0  0  0
   -6.9545   -3.4536    5.5321 H   0  0  0  1  0  0  0  0  0  0  0  0
    2.5465    1.8201    1.6637 H   0  0  0  1  0  0  0  0  0  0  0  0
   -9.4862    0.8290    4.5279 H   0  0  0  1  0  0  0  0  0  0  0  0
   -7.5842   -0.0628    0.7007 H   0  0  0  1  0  0  0  0  0  0  0  0
   -6.1923    0.1062    1.7439 H   0  0  0  1  0  0  0  0  0  0  0  0
   -8.7893    1.5114    2.2348 H   0  0  0  1  0  0  0  0  0  0  0  0
   -7.4328    1.3640    3.3268 H   0  0  0  1  0  0  0  0  0  0  0  0
   -6.1915    2.4424    1.3533 H   0  0  0  1  0  0  0  0  0  0  0  0
   -7.5720    2.2617    0.2971 H   0  0  0  1  0  0  0  0  0  0  0  0
    1.5518   -1.1810    2.2571 H   0  0  0  1  0  0  0  0  0  0  0  0
    3.1272   -0.6766    1.6935 H   0  0  0  1  0  0  0  0  0  0  0  0
   -9.1475   -0.8958    2.3347 H   0  0  0  1  0  0  0  0  0  0  0  0
   -6.2307    1.1037   -1.2992 H   0  0  0  1  0  0  0  0  0  0  0  0
   -5.5526    2.6690   -0.9198 H   0  0  0  1  0  0  0  0  0  0  0  0
   -2.7939   -2.3030    1.3546 H   0  0  0  1  0  0  0  0  0  0  0  0
   -1.2623   -1.6402    0.8359 H   0  0  0  1  0  0  0  0  0  0  0  0
    2.0639    0.6185   -0.0634 H   0  0  0  1  0  0  0  0  0  0  0  0
    2.5905   -1.7743   -0.4724 H   0  0  0  1  0  0  0  0  0  0  0  0
    1.1691   -2.4367    0.2991 H   0  0  0  1  0  0  0  0  0  0  0  0
   -0.6793    1.9684    0.9149 H   0  0  0  1  0  0  0  0  0  0  0  0
    2.5557   -3.5860    1.9053 H   0  0  0  1  0  0  0  0  0  0  0  0
    3.9882   -2.8931    1.1827 H   0  0  0  1  0  0  0  0  0  0  0  0
   -0.1469   -0.6986   -0.0440 H   0  0  0  1  0  0  0  0  0  0  0  0
    3.6376   -4.1159   -0.8297 H   0  0  0  1  0  0  0  0  0  0  0  0
    2.0874   -4.6899   -0.2629 H   0  0  0  1  0  0  0  0  0  0  0  0
   -2.4114   -2.2588   -1.5681 H   0  0  0  1  0  0  0  0  0  0  0  0
   -2.4429   -4.5080   -1.5293 H   0  0  0  1  0  0  0  0  0  0  0  0
   -2.3833   -4.8373    1.2925 H   0  0  0  1  0  0  0  0  0  0  0  0
   -0.7298   -4.5523    0.8037 H   0  0  0  1  0  0  0  0  0  0  0  0
    4.8056   -5.4695    0.7106 H   0  0  0  1  0  0  0  0  0  0  0  0
    3.5770   -6.4915    0.0045 H   0  0  0  1  0  0  0  0  0  0  0  0
    3.3490   -5.8295    1.6057 H   0  0  0  1  0  0  0  0  0  0  0  0
   -0.9146   -6.3855   -0.8125 H   0  0  0  1  0  0  0  0  0  0  0  0
   -2.5444   -6.6886   -0.2593 H   0  0  0  1  0  0  0  0  0  0  0  0
   -1.6843   -7.2014    1.9562 H   0  0  0  1  0  0  0  0  0  0  0  0
   -0.0576   -6.9283    1.3787 H   0  0  0  1  0  0  0  0  0  0  0  0
  1 34  1  0  0  0  0
  2  4  1  0  0  0  0
  3  4  1  0  0  0  0
  4  5  1  0  0  0  0
  4 32  1  0  0  0  0
  6 10  1  0  0  0  0
  6 26  1  0  0  0  0
  6 42  1  0  0  0  0
  7  8  1  0  0  0  0
  7  9  2  0  0  0  0
  7 13  1  0  0  0  0
  8 43  1  0  0  0  0
  8 44  1  0  0  0  0
  8 45  1  0  0  0  0
 10 46  1  0  0  0  0
 10 47  1  0  0  0  0
 10 48  1  0  0  0  0
 11 27  1  0  0  0  0
 11 49  1  0  0  0  0
 12 26  2  0  0  0  0
 13 23  1  0  0  0  0
 13 50  1  0  0  0  0
 14 41  1  0  0  0  0
 15 24  1  0  0  0  0
 15 32  4  0  0  0  0
 15 34  4  0  0  0  0
 16 41  2  0  0  0  0
 17 18  1  0  0  0  0
 17 20  1  0  0  0  0
 17 51  1  0  0  0  0
 17 52  1  0  0  0  0
 18 23  1  0  0  0  0
 18 53  1  0  0  0  0
 18 54  1  0  0  0  0
 19 21  4  0  0  0  0
 19 29  1  0  0  0  0
 19 32  4  0  0  0  0
 20 24  1  0  0  0  0
 20 55  1  0  0  0  0
 20 56  1  0  0  0  0
 21 25  1  0  0  0  0
 21 34  4  0  0  0  0
 22 27  1  0  0  0  0
 22 28  1  0  0  0  0
 22 57  1  0  0  0  0
 22 58  1  0  0  0  0
 23 26  1  0  0  0  0
 23 59  1  0  0  0  0
 24 60  1  0  0  0  0
 24 61  1  0  0  0  0
 25 35  1  0  0  0  0
 25 62  1  0  0  0  0
 25 63  1  0  0  0  0
 27 31  1  0  0  0  0
 27 64  1  0  0  0  0
 28 30  1  0  0  0  0
 28 65  1  0  0  0  0
 28 66  1  0  0  0  0
 29 31  2  0  0  0  0
 29 67  1  0  0  0  0
 30 33  1  0  0  0  0
 30 68  1  0  0  0  0
 30 69  1  0  0  0  0
 31 70  1  0  0  0  0
 33 38  1  0  0  0  0
 33 71  1  0  0  0  0
 33 72  1  0  0  0  0
 35 36  2  0  0  0  0
 35 73  1  0  0  0  0
 36 37  1  0  0  0  0
 36 74  1  0  0  0  0
 37 39  1  0  0  0  0
 37 75  1  0  0  0  0
 37 76  1  0  0  0  0
 38 77  1  0  0  0  0
 38 78  1  0  0  0  0
 38 79  1  0  0  0  0
 39 40  1  0  0  0  0
 39 80  1  0  0  0  0
 39 81  1  0  0  0  0
 40 41  1  0  0  0  0
 40 82  1  0  0  0  0
 40 83  1  0  0  0  0
M  END
> <ConfClashScore>
0 

> <ConfOneFourInteractionScore>
-0.985213 

> <ConfScore>
-0.124979 

> <ConfScorePBest>
0.00712182 

> <ConfTolerance>
1.84136 

$$$$
9548876
  PyMOL2.2          3D                             0

 83 83  0  0  0  0  0  0  0  0999 V2000
   -5.0144   -1.0364   -0.0874 H   0  0  0  1  0  0  0  0  0  0  0  0
   -2.1803    3.4630   -0.3977 H   0  0  0  1  0  0  0  0  0  0  0  0
   -3.4022    3.5978    0.8438 H   0  0  0  1  0  0  0  0  0  0  0  0
   -3.1753    3.1864   -0.1175 C   0  0  0  1  0  0  0  0  0  0  0  0
   -3.8674    3.5650   -0.8405 H   0  0  0  1  0  0  0  0  0  0  0  0
   -9.4200    7.0738    2.1775 N   0  0  0  1  0  0  0  0  0  0  0  0
  -10.8992    5.8156    0.1734 C   0  0  0  1  0  0  0  0  0  0  0  0
  -11.2196    6.3851   -1.1949 C   0  0  0  1  0  0  0  0  0  0  0  0
  -11.6912    5.9041    1.0972 O   0  0  0  1  0  0  0  0  0  0  0  0
   -9.5089    8.2650    3.0088 C   0  0  0  1  0  0  0  0  0  0  0  0
    2.1393    0.0954    1.8335 O   0  0  0  1  0  0  0  0  0  0  0  0
   -9.4404    5.5269    3.8187 O   0  0  0  1  0  0  0  0  0  0  0  0
   -9.7027    5.2184    0.2910 N   0  0  0  1  0  0  0  0  0  0  0  0
   -2.7860   -6.9336   -4.4888 O   0  5  0  1  0  0  0  0  0  0  0  0
   -4.4648    1.0494   -0.2295 N   0  0  0  1  0  0  0  0  0  0  0  0
   -4.1167   -5.0948   -4.3385 O   0  0  0  1  0  0  0  0  0  0  0  0
   -7.4629    3.2151    0.4834 C   0  0  0  1  0  0  0  0  0  0  0  0
   -7.7093    4.3730    1.4368 C   0  0  0  1  0  0  0  0  0  0  0  0
   -2.3166    0.7549    0.2590 C   0  0  0  1  0  0  0  0  0  0  0  0
   -5.9895    2.9537    0.2215 C   0  0  0  1  0  0  0  0  0  0  0  0
   -2.9499   -0.4963    0.2812 C   0  0  0  1  0  0  0  0  0  0  0  0
    2.4471    0.5461   -0.5076 C   0  0  0  1  0  0  0  0  0  0  0  0
   -9.1915    4.7469    1.5693 C   0  0  0  1  0  0  0  0  0  0  0  0
   -5.7353    1.6866   -0.5772 C   0  0  0  1  0  0  0  0  0  0  0  0
   -2.2928   -1.8220    0.5848 C   0  0  0  1  0  0  0  0  0  0  0  0
   -9.3364    5.8231    2.6398 C   0  0  0  1  0  0  0  0  0  0  0  0
    1.5516    0.7537    0.7235 C   0  0  0  1  0  0  0  0  0  0  0  0
    3.8214    1.1220   -0.2725 C   0  0  0  1  0  0  0  0  0  0  0  0
   -0.9112    1.0574    0.5152 C   0  0  0  1  0  0  0  0  0  0  0  0
    4.7291    1.1618   -1.4868 C   0  0  0  1  0  0  0  0  0  0  0  0
    0.1579    0.3034    0.4203 C   0  0  0  1  0  0  0  0  0  0  0  0
   -3.2809    1.7013   -0.0594 C   0  0  0  1  0  0  0  0  0  0  0  0
    6.0353    1.8731   -1.2341 C   0  0  0  1  0  0  0  0  0  0  0  0
   -4.2827   -0.3000   -0.0241 C   0  0  0  1  0  0  0  0  0  0  0  0
   -3.2369   -2.7873    1.2283 C   0  0  0  1  0  0  0  0  0  0  0  0
   -3.5536   -4.0493    0.7926 C   0  0  0  1  0  0  0  0  0  0  0  0
   -2.6518   -4.6260   -0.2658 C   0  0  0  1  0  0  0  0  0  0  0  0
    7.1103    1.6610   -2.2876 C   0  0  0  1  0  0  0  0  0  0  0  0
   -3.4178   -4.8596   -1.5577 C   0  0  0  1  0  0  0  0  0  0  0  0
   -2.5437   -5.5639   -2.5826 C   0  0  0  1  0  0  0  0  0  0  0  0
   -3.2420   -5.8085   -3.8758 C   0  0  0  1  0  0  0  0  0  0  0  0
   -9.4217    7.1985    1.2055 H   0  0  0  1  0  0  0  0  0  0  0  0
  -11.3264    7.4473   -1.1236 H   0  0  0  1  0  0  0  0  0  0  0  0
  -12.1329    5.9583   -1.5536 H   0  0  0  1  0  0  0  0  0  0  0  0
  -10.4256    6.1514   -1.8730 H   0  0  0  1  0  0  0  0  0  0  0  0
  -10.2065    8.9514    2.5760 H   0  0  0  1  0  0  0  0  0  0  0  0
   -8.5463    8.7279    3.0725 H   0  0  0  1  0  0  0  0  0  0  0  0
   -9.8394    7.9917    3.9891 H   0  0  0  1  0  0  0  0  0  0  0  0
    2.2126   -0.8435    1.6473 H   0  0  0  1  0  0  0  0  0  0  0  0
   -9.1545    5.0956   -0.5120 H   0  0  0  1  0  0  0  0  0  0  0  0
   -7.9393    3.4360   -0.4489 H   0  0  0  1  0  0  0  0  0  0  0  0
   -7.8947    2.3312    0.9044 H   0  0  0  1  0  0  0  0  0  0  0  0
   -7.1747    5.2275    1.0779 H   0  0  0  1  0  0  0  0  0  0  0  0
   -7.3403    4.1009    2.4035 H   0  0  0  1  0  0  0  0  0  0  0  0
   -5.4877    2.8678    1.1626 H   0  0  0  1  0  0  0  0  0  0  0  0
   -5.5892    3.7836   -0.3224 H   0  0  0  1  0  0  0  0  0  0  0  0
    2.0025    1.0322   -1.3508 H   0  0  0  1  0  0  0  0  0  0  0  0
    2.5349   -0.5019   -0.7049 H   0  0  0  1  0  0  0  0  0  0  0  0
   -9.7367    3.8794    1.8777 H   0  0  0  1  0  0  0  0  0  0  0  0
   -6.5293    0.9954   -0.3855 H   0  0  0  1  0  0  0  0  0  0  0  0
   -5.7210    1.9345   -1.6180 H   0  0  0  1  0  0  0  0  0  0  0  0
   -1.4683   -1.6542    1.2458 H   0  0  0  1  0  0  0  0  0  0  0  0
   -1.9363   -2.2471   -0.3301 H   0  0  0  1  0  0  0  0  0  0  0  0
    1.5169    1.8047    0.9213 H   0  0  0  1  0  0  0  0  0  0  0  0
    4.3021    0.5313    0.4791 H   0  0  0  1  0  0  0  0  0  0  0  0
    3.7024    2.1242    0.0829 H   0  0  0  1  0  0  0  0  0  0  0  0
   -0.7273    2.0332    0.8244 H   0  0  0  1  0  0  0  0  0  0  0  0
    4.2154    1.6667   -2.2780 H   0  0  0  1  0  0  0  0  0  0  0  0
    4.9424    0.1562   -1.7840 H   0  0  0  1  0  0  0  0  0  0  0  0
    0.0267   -0.6809    0.1112 H   0  0  0  1  0  0  0  0  0  0  0  0
    6.4208    1.5310   -0.2964 H   0  0  0  1  0  0  0  0  0  0  0  0
    5.8333    2.9222   -1.1759 H   0  0  0  1  0  0  0  0  0  0  0  0
   -3.7040   -2.4673    2.1007 H   0  0  0  1  0  0  0  0  0  0  0  0
   -4.3672   -4.5754    1.1705 H   0  0  0  1  0  0  0  0  0  0  0  0
   -2.2556   -5.5577    0.0805 H   0  0  0  1  0  0  0  0  0  0  0  0
   -1.8489   -3.9437   -0.4525 H   0  0  0  1  0  0  0  0  0  0  0  0
    6.7930    2.0929   -3.2137 H   0  0  0  1  0  0  0  0  0  0  0  0
    7.2761    0.6124   -2.4216 H   0  0  0  1  0  0  0  0  0  0  0  0
    8.0186    2.1283   -1.9690 H   0  0  0  1  0  0  0  0  0  0  0  0
   -3.7331   -3.9170   -1.9540 H   0  0  0  1  0  0  0  0  0  0  0  0
   -4.2754   -5.4656   -1.3524 H   0  0  0  1  0  0  0  0  0  0  0  0
   -2.2361   -6.5056   -2.1782 H   0  0  0  1  0  0  0  0  0  0  0  0
   -1.6824   -4.9572   -2.7700 H   0  0  0  1  0  0  0  0  0  0  0  0
  1 34  1  0  0  0  0
  2  4  1  0  0  0  0
  3  4  1  0  0  0  0
  4  5  1  0  0  0  0
  4 32  1  0  0  0  0
  6 10  1  0  0  0  0
  6 26  1  0  0  0  0
  6 42  1  0  0  0  0
  7  8  1  0  0  0  0
  7  9  2  0  0  0  0
  7 13  1  0  0  0  0
  8 43  1  0  0  0  0
  8 44  1  0  0  0  0
  8 45  1  0  0  0  0
 10 46  1  0  0  0  0
 10 47  1  0  0  0  0
 10 48  1  0  0  0  0
 11 27  1  0  0  0  0
 11 49  1  0  0  0  0
 12 26  2  0  0  0  0
 13 23  1  0  0  0  0
 13 50  1  0  0  0  0
 14 41  1  0  0  0  0
 15 24  1  0  0  0  0
 15 32  4  0  0  0  0
 15 34  4  0  0  0  0
 16 41  2  0  0  0  0
 17 18  1  0  0  0  0
 17 20  1  0  0  0  0
 17 51  1  0  0  0  0
 17 52  1  0  0  0  0
 18 23  1  0  0  0  0
 18 53  1  0  0  0  0
 18 54  1  0  0  0  0
 19 21  4  0  0  0  0
 19 29  1  0  0  0  0
 19 32  4  0  0  0  0
 20 24  1  0  0  0  0
 20 55  1  0  0  0  0
 20 56  1  0  0  0  0
 21 25  1  0  0  0  0
 21 34  4  0  0  0  0
 22 27  1  0  0  0  0
 22 28  1  0  0  0  0
 22 57  1  0  0  0  0
 22 58  1  0  0  0  0
 23 26  1  0  0  0  0
 23 59  1  0  0  0  0
 24 60  1  0  0  0  0
 24 61  1  0  0  0  0
 25 35  1  0  0  0  0
 25 62  1  0  0  0  0
 25 63  1  0  0  0  0
 27 31  1  0  0  0  0
 27 64  1  0  0  0  0
 28 30  1  0  0  0  0
 28 65  1  0  0  0  0
 28 66  1  0  0  0  0
 29 31  2  0  0  0  0
 29 67  1  0  0  0  0
 30 33  1  0  0  0  0
 30 68  1  0  0  0  0
 30 69  1  0  0  0  0
 31 70  1  0  0  0  0
 33 38  1  0  0  0  0
 33 71  1  0  0  0  0
 33 72  1  0  0  0  0
 35 36  2  0  0  0  0
 35 73  1  0  0  0  0
 36 37  1  0  0  0  0
 36 74  1  0  0  0  0
 37 39  1  0  0  0  0
 37 75  1  0  0  0  0
 37 76  1  0  0  0  0
 38 77  1  0  0  0  0
 38 78  1  0  0  0  0
 38 79  1  0  0  0  0
 39 40  1  0  0  0  0
 39 80  1  0  0  0  0
 39 81  1  0  0  0  0
 40 41  1  0  0  0  0
 40 82  1  0  0  0  0
 40 83  1  0  0  0  0
M  END
> <ConfClashScore>
0 

> <ConfOneFourInteractionScore>
-0.985972 

> <ConfScore>
-0.122155 

> <ConfScorePBest>
0.00709334 

> <ConfTolerance>
1.59971 

$$$$
9548876
  PyMOL2.2          3D                             0

 83 83  0  0  0  0  0  0  0  0999 V2000
   -5.0113   -1.0257   -0.1149 H   0  0  0  1  0  0  0  0  0  0  0  0
   -2.2356    3.4395   -0.6097 H   0  0  0  1  0  0  0  0  0  0  0  0
   -3.1840    3.6345    0.8446 H   0  0  0  1  0  0  0  0  0  0  0  0
   -3.1616    3.1968   -0.1315 C   0  0  0  1  0  0  0  0  0  0  0  0
   -3.9741    3.5792   -0.7132 H   0  0  0  1  0  0  0  0  0  0  0  0
  -12.1460    3.8019    2.7253 N   0  0  0  1  0  0  0  0  0  0  0  0
  -10.9111    4.7043   -0.2615 C   0  0  0  1  0  0  0  0  0  0  0  0
  -10.6841    5.9291   -1.1184 C   0  0  0  1  0  0  0  0  0  0  0  0
  -11.8645    3.9554   -0.4710 O   0  0  0  1  0  0  0  0  0  0  0  0
  -13.0150    3.9657    3.8810 C   0  0  0  1  0  0  0  0  0  0  0  0
    1.5536    0.9675    1.7057 O   0  0  0  1  0  0  0  0  0  0  0  0
  -10.3095    3.3311    3.9358 O   0  0  0  1  0  0  0  0  0  0  0  0
  -10.0485    4.4613    0.7258 N   0  0  0  1  0  0  0  0  0  0  0  0
    4.8450   -0.9463    3.4026 O   0  5  0  1  0  0  0  0  0  0  0  0
   -4.4689    1.0648   -0.2054 N   0  0  0  1  0  0  0  0  0  0  0  0
    3.7806   -2.9125    3.8510 O   0  0  0  1  0  0  0  0  0  0  0  0
   -7.9392    2.4131    0.5340 C   0  0  0  1  0  0  0  0  0  0  0  0
   -8.6668    2.7196    1.8340 C   0  0  0  1  0  0  0  0  0  0  0  0
   -2.3217    0.7665    0.2854 C   0  0  0  1  0  0  0  0  0  0  0  0
   -6.5289    1.8882    0.7425 C   0  0  0  1  0  0  0  0  0  0  0  0
   -2.9505   -0.4871    0.2754 C   0  0  0  1  0  0  0  0  0  0  0  0
    2.1270    2.7760    0.2220 C   0  0  0  1  0  0  0  0  0  0  0  0
  -10.0705    3.2647    1.5550 C   0  0  0  1  0  0  0  0  0  0  0  0
   -5.7963    1.6145   -0.5468 C   0  0  0  1  0  0  0  0  0  0  0  0
   -2.2898   -1.8172    0.5506 C   0  0  0  1  0  0  0  0  0  0  0  0
  -10.8499    3.4998    2.8440 C   0  0  0  1  0  0  0  0  0  0  0  0
    1.1292    2.2354    1.2457 C   0  0  0  1  0  0  0  0  0  0  0  0
    3.5374    2.7693    0.7888 C   0  0  0  1  0  0  0  0  0  0  0  0
   -0.9093    1.0132    0.5622 C   0  0  0  1  0  0  0  0  0  0  0  0
    4.5595    3.3709   -0.1435 C   0  0  0  1  0  0  0  0  0  0  0  0
   -0.2340    2.1397    0.6429 C   0  0  0  1  0  0  0  0  0  0  0  0
   -3.2881    1.7167   -0.0148 C   0  0  0  1  0  0  0  0  0  0  0  0
    5.9817    3.4062    0.3821 C   0  0  0  1  0  0  0  0  0  0  0  0
   -4.2826   -0.2884   -0.0311 C   0  0  0  1  0  0  0  0  0  0  0  0
   -2.2554   -2.0910    2.0207 C   0  0  0  1  0  0  0  0  0  0  0  0
   -1.2379   -1.9313    2.8294 C   0  0  0  1  0  0  0  0  0  0  0  0
    0.0243   -1.1575    2.5574 C   0  0  0  1  0  0  0  0  0  0  0  0
    6.9878    3.9175   -0.6361 C   0  0  0  1  0  0  0  0  0  0  0  0
    1.2140   -1.6470    3.3779 C   0  0  0  1  0  0  0  0  0  0  0  0
    2.5454   -1.0915    2.8993 C   0  0  0  1  0  0  0  0  0  0  0  0
    3.7542   -1.7564    3.4622 C   0  0  0  1  0  0  0  0  0  0  0  0
  -12.5245    3.9171    1.8288 H   0  0  0  1  0  0  0  0  0  0  0  0
   -9.7363    6.3630   -0.8772 H   0  0  0  1  0  0  0  0  0  0  0  0
  -11.4601    6.6422   -0.9335 H   0  0  0  1  0  0  0  0  0  0  0  0
  -10.6954    5.6487   -2.1510 H   0  0  0  1  0  0  0  0  0  0  0  0
  -13.4093    3.0137    4.1693 H   0  0  0  1  0  0  0  0  0  0  0  0
  -13.8206    4.6241    3.6308 H   0  0  0  1  0  0  0  0  0  0  0  0
  -12.4543    4.3799    4.6928 H   0  0  0  1  0  0  0  0  0  0  0  0
    2.3053    0.6733    1.1862 H   0  0  0  1  0  0  0  0  0  0  0  0
   -9.3556    5.1309    0.9047 H   0  0  0  1  0  0  0  0  0  0  0  0
   -7.8847    3.3117   -0.0443 H   0  0  0  1  0  0  0  0  0  0  0  0
   -8.4995    1.6763   -0.0028 H   0  0  0  1  0  0  0  0  0  0  0  0
   -8.1101    3.4492    2.3841 H   0  0  0  1  0  0  0  0  0  0  0  0
   -8.7473    1.8222    2.4111 H   0  0  0  1  0  0  0  0  0  0  0  0
   -6.5851    0.9771    1.3008 H   0  0  0  1  0  0  0  0  0  0  0  0
   -5.9754    2.6149    1.2996 H   0  0  0  1  0  0  0  0  0  0  0  0
    1.8571    3.7789   -0.0353 H   0  0  0  1  0  0  0  0  0  0  0  0
    2.0981    2.1624   -0.6541 H   0  0  0  1  0  0  0  0  0  0  0  0
  -10.5931    2.5049    1.0124 H   0  0  0  1  0  0  0  0  0  0  0  0
   -6.3436    0.9060   -1.1326 H   0  0  0  1  0  0  0  0  0  0  0  0
   -5.6822    2.5232   -1.1001 H   0  0  0  1  0  0  0  0  0  0  0  0
   -1.2890   -1.7980    0.1726 H   0  0  0  1  0  0  0  0  0  0  0  0
   -2.8416   -2.5923    0.0610 H   0  0  0  1  0  0  0  0  0  0  0  0
    1.0864    2.9216    2.0656 H   0  0  0  1  0  0  0  0  0  0  0  0
    3.8170    1.7564    0.9907 H   0  0  0  1  0  0  0  0  0  0  0  0
    3.5391    3.3289    1.7008 H   0  0  0  1  0  0  0  0  0  0  0  0
   -0.3429    0.1559    0.7223 H   0  0  0  1  0  0  0  0  0  0  0  0
    4.2612    4.3766   -0.3548 H   0  0  0  1  0  0  0  0  0  0  0  0
    4.5566    2.7999   -1.0484 H   0  0  0  1  0  0  0  0  0  0  0  0
   -0.6709    3.0060    0.2684 H   0  0  0  1  0  0  0  0  0  0  0  0
    6.2625    2.4140    0.6677 H   0  0  0  1  0  0  0  0  0  0  0  0
    6.0109    4.0463    1.2390 H   0  0  0  1  0  0  0  0  0  0  0  0
   -3.1349   -2.4467    2.4467 H   0  0  0  1  0  0  0  0  0  0  0  0
   -1.3097   -2.3887    3.7607 H   0  0  0  1  0  0  0  0  0  0  0  0
   -0.1502   -0.1281    2.7913 H   0  0  0  1  0  0  0  0  0  0  0  0
    0.2647   -1.2522    1.5191 H   0  0  0  1  0  0  0  0  0  0  0  0
    7.9639    3.9310   -0.1979 H   0  0  0  1  0  0  0  0  0  0  0  0
    6.7184    4.9084   -0.9367 H   0  0  0  1  0  0  0  0  0  0  0  0
    6.9894    3.2731   -1.4902 H   0  0  0  1  0  0  0  0  0  0  0  0
    1.2508   -2.7147    3.3184 H   0  0  0  1  0  0  0  0  0  0  0  0
    1.0689   -1.3508    4.3958 H   0  0  0  1  0  0  0  0  0  0  0  0
    2.5851   -0.0555    3.1641 H   0  0  0  1  0  0  0  0  0  0  0  0
    2.5804   -1.1897    1.8344 H   0  0  0  1  0  0  0  0  0  0  0  0
  1 34  1  0  0  0  0
  2  4  1  0  0  0  0
  3  4  1  0  0  0  0
  4  5  1  0  0  0  0
  4 32  1  0  0  0  0
  6 10  1  0  0  0  0
  6 26  1  0  0  0  0
  6 42  1  0  0  0  0
  7  8  1  0  0  0  0
  7  9  2  0  0  0  0
  7 13  1  0  0  0  0
  8 43  1  0  0  0  0
  8 44  1  0  0  0  0
  8 45  1  0  0  0  0
 10 46  1  0  0  0  0
 10 47  1  0  0  0  0
 10 48  1  0  0  0  0
 11 27  1  0  0  0  0
 11 49  1  0  0  0  0
 12 26  2  0  0  0  0
 13 23  1  0  0  0  0
 13 50  1  0  0  0  0
 14 41  1  0  0  0  0
 15 24  1  0  0  0  0
 15 32  4  0  0  0  0
 15 34  4  0  0  0  0
 16 41  2  0  0  0  0
 17 18  1  0  0  0  0
 17 20  1  0  0  0  0
 17 51  1  0  0  0  0
 17 52  1  0  0  0  0
 18 23  1  0  0  0  0
 18 53  1  0  0  0  0
 18 54  1  0  0  0  0
 19 21  4  0  0  0  0
 19 29  1  0  0  0  0
 19 32  4  0  0  0  0
 20 24  1  0  0  0  0
 20 55  1  0  0  0  0
 20 56  1  0  0  0  0
 21 25  1  0  0  0  0
 21 34  4  0  0  0  0
 22 27  1  0  0  0  0
 22 28  1  0  0  0  0
 22 57  1  0  0  0  0
 22 58  1  0  0  0  0
 23 26  1  0  0  0  0
 23 59  1  0  0  0  0
 24 60  1  0  0  0  0
 24 61  1  0  0  0  0
 25 35  1  0  0  0  0
 25 62  1  0  0  0  0
 25 63  1  0  0  0  0
 27 31  1  0  0  0  0
 27 64  1  0  0  0  0
 28 30  1  0  0  0  0
 28 65  1  0  0  0  0
 28 66  1  0  0  0  0
 29 31  2  0  0  0  0
 29 67  1  0  0  0  0
 30 33  1  0  0  0  0
 30 68  1  0  0  0  0
 30 69  1  0  0  0  0
 31 70  1  0  0  0  0
 33 38  1  0  0  0  0
 33 71  1  0  0  0  0
 33 72  1  0  0  0  0
 35 36  2  0  0  0  0
 35 73  1  0  0  0  0
 36 37  1  0  0  0  0
 36 74  1  0  0  0  0
 37 39  1  0  0  0  0
 37 75  1  0  0  0  0
 37 76  1  0  0  0  0
 38 77  1  0  0  0  0
 38 78  1  0  0  0  0
 38 79  1  0  0  0  0
 39 40  1  0  0  0  0
 39 80  1  0  0  0  0
 39 81  1  0  0  0  0
 40 41  1  0  0  0  0
 40 82  1  0  0  0  0
 40 83  1  0  0  0  0
M  END
> <ConfClashScore>
0 

> <ConfOneFourInteractionScore>
-0.991277 

> <ConfScore>
-0.116963 

> <ConfScorePBest>
0.00706485 

> <ConfTolerance>
1.46677 

$$$$
9548876
  PyMOL2.2          3D                             0

 83 83  0  0  0  0  0  0  0  0999 V2000
   -4.9994   -1.0472   -0.1065 H   0  0  0  1  0  0  0  0  0  0  0  0
   -3.4342    3.6427    0.7956 H   0  0  0  1  0  0  0  0  0  0  0  0
   -3.8258    3.5354   -0.9037 H   0  0  0  1  0  0  0  0  0  0  0  0
   -3.1687    3.1861   -0.1349 C   0  0  0  1  0  0  0  0  0  0  0  0
   -2.1601    3.4431   -0.3831 H   0  0  0  1  0  0  0  0  0  0  0  0
   -4.5572    1.7837   -6.7785 N   0  0  0  1  0  0  0  0  0  0  0  0
   -2.4913    1.3091   -4.6623 C   0  0  0  1  0  0  0  0  0  0  0  0
   -1.6109    2.2350   -3.8747 C   0  0  0  1  0  0  0  0  0  0  0  0
   -2.1222    0.6902   -5.6467 O   0  0  0  1  0  0  0  0  0  0  0  0
   -4.6502    2.1859   -8.1740 C   0  0  0  1  0  0  0  0  0  0  0  0
    1.7487   -0.3929    2.1146 O   0  0  0  1  0  0  0  0  0  0  0  0
   -5.0857   -0.3798   -7.1344 O   0  0  0  1  0  0  0  0  0  0  0  0
   -3.7474    1.1843   -4.2246 N   0  0  0  1  0  0  0  0  0  0  0  0
    4.6624   -3.8929   -1.5993 O   0  5  0  1  0  0  0  0  0  0  0  0
   -4.4665    1.0455   -0.2025 N   0  0  0  1  0  0  0  0  0  0  0  0
    3.1796   -5.6155   -1.5069 O   0  0  0  1  0  0  0  0  0  0  0  0
   -6.0553    0.4035   -2.7041 C   0  0  0  1  0  0  0  0  0  0  0  0
   -6.0876    0.4944   -4.2221 C   0  0  0  1  0  0  0  0  0  0  0  0
   -2.3176    0.7583    0.2876 C   0  0  0  1  0  0  0  0  0  0  0  0
   -6.0310    1.7605   -2.0197 C   0  0  0  1  0  0  0  0  0  0  0  0
   -2.9407   -0.4982    0.2811 C   0  0  0  1  0  0  0  0  0  0  0  0
    2.5040    0.4438   -0.0152 C   0  0  0  1  0  0  0  0  0  0  0  0
   -4.7124    0.3076   -4.8711 C   0  0  0  1  0  0  0  0  0  0  0  0
   -5.7409    1.6796   -0.5414 C   0  0  0  1  0  0  0  0  0  0  0  0
   -2.3285   -1.8525    0.5502 C   0  0  0  1  0  0  0  0  0  0  0  0
   -4.8309    0.5399   -6.3744 C   0  0  0  1  0  0  0  0  0  0  0  0
    1.4533    0.5383    1.0979 C   0  0  0  1  0  0  0  0  0  0  0  0
    3.9281    0.6175    0.4845 C   0  0  0  1  0  0  0  0  0  0  0  0
   -0.9287    1.1175    0.5475 C   0  0  0  1  0  0  0  0  0  0  0  0
    4.9659    0.5643   -0.6237 C   0  0  0  1  0  0  0  0  0  0  0  0
    0.0857    0.2894    0.5457 C   0  0  0  1  0  0  0  0  0  0  0  0
   -3.2886    1.7034   -0.0143 C   0  0  0  1  0  0  0  0  0  0  0  0
    6.3659    0.9093   -0.1535 C   0  0  0  1  0  0  0  0  0  0  0  0
   -4.2740   -0.3064   -0.0250 C   0  0  0  1  0  0  0  0  0  0  0  0
   -2.5082   -2.8425   -0.5474 C   0  0  0  1  0  0  0  0  0  0  0  0
   -1.4647   -3.3730   -1.1739 C   0  0  0  1  0  0  0  0  0  0  0  0
   -0.0870   -2.7717   -1.0465 C   0  0  0  1  0  0  0  0  0  0  0  0
    7.4288    0.9523   -1.2391 C   0  0  0  1  0  0  0  0  0  0  0  0
    0.9671   -3.7469   -1.5087 C   0  0  0  1  0  0  0  0  0  0  0  0
    2.4010   -3.3652   -1.1793 C   0  0  0  1  0  0  0  0  0  0  0  0
    3.4192   -4.4211   -1.4408 C   0  0  0  1  0  0  0  0  0  0  0  0
   -4.2844    2.4482   -6.1119 H   0  0  0  1  0  0  0  0  0  0  0  0
   -1.4680    3.1434   -4.4217 H   0  0  0  1  0  0  0  0  0  0  0  0
   -0.6633    1.7678   -3.7056 H   0  0  0  1  0  0  0  0  0  0  0  0
   -2.0739    2.4538   -2.9352 H   0  0  0  1  0  0  0  0  0  0  0  0
   -5.0366    1.3744   -8.7546 H   0  0  0  1  0  0  0  0  0  0  0  0
   -3.6780    2.4506   -8.5341 H   0  0  0  1  0  0  0  0  0  0  0  0
   -5.3043    3.0283   -8.2593 H   0  0  0  1  0  0  0  0  0  0  0  0
    2.6801   -0.6227    2.0779 H   0  0  0  1  0  0  0  0  0  0  0  0
   -4.0288    1.7012   -3.4410 H   0  0  0  1  0  0  0  0  0  0  0  0
   -5.1787   -0.1378   -2.4153 H   0  0  0  1  0  0  0  0  0  0  0  0
   -6.9258   -0.1258   -2.3773 H   0  0  0  1  0  0  0  0  0  0  0  0
   -6.4641    1.4576   -4.4963 H   0  0  0  1  0  0  0  0  0  0  0  0
   -6.7439   -0.2647   -4.5934 H   0  0  0  1  0  0  0  0  0  0  0  0
   -6.9857    2.2249   -2.1531 H   0  0  0  1  0  0  0  0  0  0  0  0
   -5.2746    2.3599   -2.4815 H   0  0  0  1  0  0  0  0  0  0  0  0
    2.3025    1.2070   -0.7376 H   0  0  0  1  0  0  0  0  0  0  0  0
    2.4219   -0.5172   -0.4786 H   0  0  0  1  0  0  0  0  0  0  0  0
   -4.4128   -0.7081   -4.7177 H   0  0  0  1  0  0  0  0  0  0  0  0
   -5.7329    2.6748   -0.1484 H   0  0  0  1  0  0  0  0  0  0  0  0
   -6.5257    1.1189   -0.0780 H   0  0  0  1  0  0  0  0  0  0  0  0
   -2.7769   -2.2514    1.4361 H   0  0  0  1  0  0  0  0  0  0  0  0
   -1.2791   -1.7186    0.7102 H   0  0  0  1  0  0  0  0  0  0  0  0
    1.4790    1.5308    1.4969 H   0  0  0  1  0  0  0  0  0  0  0  0
    4.1394   -0.1633    1.1849 H   0  0  0  1  0  0  0  0  0  0  0  0
    4.0026    1.5661    0.9738 H   0  0  0  1  0  0  0  0  0  0  0  0
   -0.7263    2.1169    0.7518 H   0  0  0  1  0  0  0  0  0  0  0  0
    4.6834    1.2593   -1.3867 H   0  0  0  1  0  0  0  0  0  0  0  0
    4.9786   -0.4258   -1.0294 H   0  0  0  1  0  0  0  0  0  0  0  0
   -0.0772   -0.6424    0.1135 H   0  0  0  1  0  0  0  0  0  0  0  0
    6.6611    0.1764    0.5680 H   0  0  0  1  0  0  0  0  0  0  0  0
    6.3296    1.8728    0.3105 H   0  0  0  1  0  0  0  0  0  0  0  0
   -3.4692   -3.1237   -0.8286 H   0  0  0  1  0  0  0  0  0  0  0  0
   -1.5996   -4.2191   -1.7634 H   0  0  0  1  0  0  0  0  0  0  0  0
    0.0927   -2.5202   -0.0221 H   0  0  0  1  0  0  0  0  0  0  0  0
   -0.0336   -1.8871   -1.6461 H   0  0  0  1  0  0  0  0  0  0  0  0
    7.1498    1.6679   -1.9840 H   0  0  0  1  0  0  0  0  0  0  0  0
    7.5178   -0.0144   -1.6893 H   0  0  0  1  0  0  0  0  0  0  0  0
    8.3670    1.2334   -0.8084 H   0  0  0  1  0  0  0  0  0  0  0  0
    0.8867   -3.8399   -2.5716 H   0  0  0  1  0  0  0  0  0  0  0  0
    0.7645   -4.6926   -1.0510 H   0  0  0  1  0  0  0  0  0  0  0  0
    2.4454   -3.1139   -0.1402 H   0  0  0  1  0  0  0  0  0  0  0  0
    2.6571   -2.5074   -1.7654 H   0  0  0  1  0  0  0  0  0  0  0  0
  1 34  1  0  0  0  0
  2  4  1  0  0  0  0
  3  4  1  0  0  0  0
  4  5  1  0  0  0  0
  4 32  1  0  0  0  0
  6 10  1  0  0  0  0
  6 26  1  0  0  0  0
  6 42  1  0  0  0  0
  7  8  1  0  0  0  0
  7  9  2  0  0  0  0
  7 13  1  0  0  0  0
  8 43  1  0  0  0  0
  8 44  1  0  0  0  0
  8 45  1  0  0  0  0
 10 46  1  0  0  0  0
 10 47  1  0  0  0  0
 10 48  1  0  0  0  0
 11 27  1  0  0  0  0
 11 49  1  0  0  0  0
 12 26  2  0  0  0  0
 13 23  1  0  0  0  0
 13 50  1  0  0  0  0
 14 41  1  0  0  0  0
 15 24  1  0  0  0  0
 15 32  4  0  0  0  0
 15 34  4  0  0  0  0
 16 41  2  0  0  0  0
 17 18  1  0  0  0  0
 17 20  1  0  0  0  0
 17 51  1  0  0  0  0
 17 52  1  0  0  0  0
 18 23  1  0  0  0  0
 18 53  1  0  0  0  0
 18 54  1  0  0  0  0
 19 21  4  0  0  0  0
 19 29  1  0  0  0  0
 19 32  4  0  0  0  0
 20 24  1  0  0  0  0
 20 55  1  0  0  0  0
 20 56  1  0  0  0  0
 21 25  1  0  0  0  0
 21 34  4  0  0  0  0
 22 27  1  0  0  0  0
 22 28  1  0  0  0  0
 22 57  1  0  0  0  0
 22 58  1  0  0  0  0
 23 26  1  0  0  0  0
 23 59  1  0  0  0  0
 24 60  1  0  0  0  0
 24 61  1  0  0  0  0
 25 35  1  0  0  0  0
 25 62  1  0  0  0  0
 25 63  1  0  0  0  0
 27 31  1  0  0  0  0
 27 64  1  0  0  0  0
 28 30  1  0  0  0  0
 28 65  1  0  0  0  0
 28 66  1  0  0  0  0
 29 31  2  0  0  0  0
 29 67  1  0  0  0  0
 30 33  1  0  0  0  0
 30 68  1  0  0  0  0
 30 69  1  0  0  0  0
 31 70  1  0  0  0  0
 33 38  1  0  0  0  0
 33 71  1  0  0  0  0
 33 72  1  0  0  0  0
 35 36  2  0  0  0  0
 35 73  1  0  0  0  0
 36 37  1  0  0  0  0
 36 74  1  0  0  0  0
 37 39  1  0  0  0  0
 37 75  1  0  0  0  0
 37 76  1  0  0  0  0
 38 77  1  0  0  0  0
 38 78  1  0  0  0  0
 38 79  1  0  0  0  0
 39 40  1  0  0  0  0
 39 80  1  0  0  0  0
 39 81  1  0  0  0  0
 40 41  1  0  0  0  0
 40 82  1  0  0  0  0
 40 83  1  0  0  0  0
M  END
> <ConfClashScore>
0 

> <ConfOneFourInteractionScore>
-0.983278 

> <ConfScore>
-0.11417 

> <ConfScorePBest>
0.00703637 

> <ConfTolerance>
1.84557 

$$$$
9548876
  PyMOL2.2          3D                             0

 83 83  0  0  0  0  0  0  0  0999 V2000
   -4.9998   -1.0472   -0.1283 H   0  0  0  1  0  0  0  0  0  0  0  0
   -4.1034    3.5914   -0.4964 H   0  0  0  1  0  0  0  0  0  0  0  0
   -2.3994    3.4249   -0.8442 H   0  0  0  1  0  0  0  0  0  0  0  0
   -3.1762    3.1866   -0.1481 C   0  0  0  1  0  0  0  0  0  0  0  0
   -2.9406    3.6064    0.8075 H   0  0  0  1  0  0  0  0  0  0  0  0
   -8.8645    2.4671   -6.3241 N   0  0  0  1  0  0  0  0  0  0  0  0
  -11.2094    2.9589   -3.4321 C   0  0  0  1  0  0  0  0  0  0  0  0
  -12.1628    1.8985   -2.9640 C   0  0  0  1  0  0  0  0  0  0  0  0
  -11.5251    4.1205   -3.6304 O   0  0  0  1  0  0  0  0  0  0  0  0
   -8.9719    2.3979   -7.7738 C   0  0  0  1  0  0  0  0  0  0  0  0
    1.2952    3.2460    1.9462 O   0  0  0  1  0  0  0  0  0  0  0  0
   -9.1248    4.6854   -6.1438 O   0  0  0  1  0  0  0  0  0  0  0  0
   -9.9487    2.5640   -3.6316 N   0  0  0  1  0  0  0  0  0  0  0  0
   -5.1947    2.9000    6.4721 O   0  5  0  1  0  0  0  0  0  0  0  0
   -4.4693    1.0461   -0.2246 N   0  0  0  1  0  0  0  0  0  0  0  0
   -3.6478    1.4020    7.2055 O   0  0  0  1  0  0  0  0  0  0  0  0
   -7.3247    2.5993   -2.2648 C   0  0  0  1  0  0  0  0  0  0  0  0
   -7.5214    2.9301   -3.7235 C   0  0  0  1  0  0  0  0  0  0  0  0
   -2.3261    0.7641    0.2925 C   0  0  0  1  0  0  0  0  0  0  0  0
   -5.9473    2.0331   -1.9553 C   0  0  0  1  0  0  0  0  0  0  0  0
   -2.9470   -0.4935    0.2825 C   0  0  0  1  0  0  0  0  0  0  0  0
    1.8234    1.0040    1.3670 C   0  0  0  1  0  0  0  0  0  0  0  0
   -8.9136    3.4742   -4.0984 C   0  0  0  1  0  0  0  0  0  0  0  0
   -5.7405    1.7233   -0.4825 C   0  0  0  1  0  0  0  0  0  0  0  0
   -2.2812   -1.8178    0.5729 C   0  0  0  1  0  0  0  0  0  0  0  0
   -8.9466    3.5987   -5.6187 C   0  0  0  1  0  0  0  0  0  0  0  0
    1.2097    2.3224    0.8842 C   0  0  0  1  0  0  0  0  0  0  0  0
    1.2915    0.4819    2.6786 C   0  0  0  1  0  0  0  0  0  0  0  0
   -0.9186    1.0212    0.5840 C   0  0  0  1  0  0  0  0  0  0  0  0
    1.9321   -0.8033    3.1798 C   0  0  0  1  0  0  0  0  0  0  0  0
   -0.1958    2.1011    0.4225 C   0  0  0  1  0  0  0  0  0  0  0  0
   -3.2949    1.7065   -0.0243 C   0  0  0  1  0  0  0  0  0  0  0  0
    1.4395   -1.2259    4.5534 C   0  0  0  1  0  0  0  0  0  0  0  0
   -4.2767   -0.3049   -0.0404 C   0  0  0  1  0  0  0  0  0  0  0  0
   -1.9410   -2.0407    2.0123 C   0  0  0  1  0  0  0  0  0  0  0  0
   -2.2478   -1.3064    2.9860 C   0  0  0  1  0  0  0  0  0  0  0  0
   -3.2222   -0.1801    3.2049 C   0  0  0  1  0  0  0  0  0  0  0  0
    2.0541   -2.5528    4.9607 C   0  0  0  1  0  0  0  0  0  0  0  0
   -3.2678    0.2970    4.6506 C   0  0  0  1  0  0  0  0  0  0  0  0
   -4.2357    1.4513    4.8753 C   0  0  0  1  0  0  0  0  0  0  0  0
   -4.3043    1.8868    6.2986 C   0  0  0  1  0  0  0  0  0  0  0  0
   -8.7230    1.6302   -5.8341 H   0  0  0  1  0  0  0  0  0  0  0  0
  -12.4474    2.0958   -1.9516 H   0  0  0  1  0  0  0  0  0  0  0  0
  -11.6874    0.9416   -3.0206 H   0  0  0  1  0  0  0  0  0  0  0  0
  -13.0334    1.9021   -3.5861 H   0  0  0  1  0  0  0  0  0  0  0  0
   -8.0829    1.9599   -8.1773 H   0  0  0  1  0  0  0  0  0  0  0  0
   -9.0944    3.3844   -8.1696 H   0  0  0  1  0  0  0  0  0  0  0  0
   -9.8172    1.7985   -8.0404 H   0  0  0  1  0  0  0  0  0  0  0  0
    0.4473    3.3000    2.3930 H   0  0  0  1  0  0  0  0  0  0  0  0
   -9.7128    1.6289   -3.4574 H   0  0  0  1  0  0  0  0  0  0  0  0
   -8.0605    1.8771   -1.9785 H   0  0  0  1  0  0  0  0  0  0  0  0
   -7.4603    3.4934   -1.6929 H   0  0  0  1  0  0  0  0  0  0  0  0
   -7.3530    2.0378   -4.2894 H   0  0  0  1  0  0  0  0  0  0  0  0
   -6.7952    3.6676   -3.9950 H   0  0  0  1  0  0  0  0  0  0  0  0
   -5.2109    2.7478   -2.2583 H   0  0  0  1  0  0  0  0  0  0  0  0
   -5.8188    1.1293   -2.5135 H   0  0  0  1  0  0  0  0  0  0  0  0
    2.8778    1.1510    1.4740 H   0  0  0  1  0  0  0  0  0  0  0  0
    1.6405    0.2617    0.6183 H   0  0  0  1  0  0  0  0  0  0  0  0
   -9.0429    4.4417   -3.6598 H   0  0  0  1  0  0  0  0  0  0  0  0
   -5.7575    2.6415    0.0666 H   0  0  0  1  0  0  0  0  0  0  0  0
   -6.5385    1.0931   -0.1494 H   0  0  0  1  0  0  0  0  0  0  0  0
   -1.3762   -1.8681    0.0043 H   0  0  0  1  0  0  0  0  0  0  0  0
   -2.9426   -2.5992    0.2615 H   0  0  0  1  0  0  0  0  0  0  0  0
    1.7852    2.6727    0.0530 H   0  0  0  1  0  0  0  0  0  0  0  0
    0.2430    0.3036    2.5615 H   0  0  0  1  0  0  0  0  0  0  0  0
    1.4446    1.2376    3.4205 H   0  0  0  1  0  0  0  0  0  0  0  0
   -0.4046    0.2119    0.9870 H   0  0  0  1  0  0  0  0  0  0  0  0
    2.9910   -0.6577    3.2292 H   0  0  0  1  0  0  0  0  0  0  0  0
    1.7112   -1.5861    2.4846 H   0  0  0  1  0  0  0  0  0  0  0  0
   -0.6479    2.8906   -0.0814 H   0  0  0  1  0  0  0  0  0  0  0  0
    0.3744   -1.3253    4.5289 H   0  0  0  1  0  0  0  0  0  0  0  0
    1.7120   -0.4786    5.2691 H   0  0  0  1  0  0  0  0  0  0  0  0
   -1.3910   -2.8957    2.2316 H   0  0  0  1  0  0  0  0  0  0  0  0
   -1.6993   -1.5297    3.8410 H   0  0  0  1  0  0  0  0  0  0  0  0
   -4.1992   -0.5160    2.9262 H   0  0  0  1  0  0  0  0  0  0  0  0
   -2.9367    0.6429    2.5835 H   0  0  0  1  0  0  0  0  0  0  0  0
    1.2787   -3.2755    5.1075 H   0  0  0  1  0  0  0  0  0  0  0  0
    2.6015   -2.4275    5.8715 H   0  0  0  1  0  0  0  0  0  0  0  0
    2.7151   -2.8909    4.1902 H   0  0  0  1  0  0  0  0  0  0  0  0
   -2.2866    0.6170    4.9333 H   0  0  0  1  0  0  0  0  0  0  0  0
   -3.5681   -0.5229    5.2691 H   0  0  0  1  0  0  0  0  0  0  0  0
   -5.2122    1.1420    4.5663 H   0  0  0  1  0  0  0  0  0  0  0  0
   -3.9191    2.2820    4.2799 H   0  0  0  1  0  0  0  0  0  0  0  0
  1 34  1  0  0  0  0
  2  4  1  0  0  0  0
  3  4  1  0  0  0  0
  4  5  1  0  0  0  0
  4 32  1  0  0  0  0
  6 10  1  0  0  0  0
  6 26  1  0  0  0  0
  6 42  1  0  0  0  0
  7  8  1  0  0  0  0
  7  9  2  0  0  0  0
  7 13  1  0  0  0  0
  8 43  1  0  0  0  0
  8 44  1  0  0  0  0
  8 45  1  0  0  0  0
 10 46  1  0  0  0  0
 10 47  1  0  0  0  0
 10 48  1  0  0  0  0
 11 27  1  0  0  0  0
 11 49  1  0  0  0  0
 12 26  2  0  0  0  0
 13 23  1  0  0  0  0
 13 50  1  0  0  0  0
 14 41  1  0  0  0  0
 15 24  1  0  0  0  0
 15 32  4  0  0  0  0
 15 34  4  0  0  0  0
 16 41  2  0  0  0  0
 17 18  1  0  0  0  0
 17 20  1  0  0  0  0
 17 51  1  0  0  0  0
 17 52  1  0  0  0  0
 18 23  1  0  0  0  0
 18 53  1  0  0  0  0
 18 54  1  0  0  0  0
 19 21  4  0  0  0  0
 19 29  1  0  0  0  0
 19 32  4  0  0  0  0
 20 24  1  0  0  0  0
 20 55  1  0  0  0  0
 20 56  1  0  0  0  0
 21 25  1  0  0  0  0
 21 34  4  0  0  0  0
 22 27  1  0  0  0  0
 22 28  1  0  0  0  0
 22 57  1  0  0  0  0
 22 58  1  0  0  0  0
 23 26  1  0  0  0  0
 23 59  1  0  0  0  0
 24 60  1  0  0  0  0
 24 61  1  0  0  0  0
 25 35  1  0  0  0  0
 25 62  1  0  0  0  0
 25 63  1  0  0  0  0
 27 31  1  0  0  0  0
 27 64  1  0  0  0  0
 28 30  1  0  0  0  0
 28 65  1  0  0  0  0
 28 66  1  0  0  0  0
 29 31  2  0  0  0  0
 29 67  1  0  0  0  0
 30 33  1  0  0  0  0
 30 68  1  0  0  0  0
 30 69  1  0  0  0  0
 31 70  1  0  0  0  0
 33 38  1  0  0  0  0
 33 71  1  0  0  0  0
 33 72  1  0  0  0  0
 35 36  2  0  0  0  0
 35 73  1  0  0  0  0
 36 37  1  0  0  0  0
 36 74  1  0  0  0  0
 37 39  1  0  0  0  0
 37 75  1  0  0  0  0
 37 76  1  0  0  0  0
 38 77  1  0  0  0  0
 38 78  1  0  0  0  0
 38 79  1  0  0  0  0
 39 40  1  0  0  0  0
 39 80  1  0  0  0  0
 39 81  1  0  0  0  0
 40 41  1  0  0  0  0
 40 82  1  0  0  0  0
 40 83  1  0  0  0  0
M  END
> <ConfClashScore>
0 

> <ConfOneFourInteractionScore>
-0.987088 

> <ConfScore>
-0.112134 

> <ConfScorePBest>
0.00700789 

> <ConfTolerance>
1.77223 

$$$$
9548876
  PyMOL2.2          3D                             0

 83 83  0  0  0  0  0  0  0  0999 V2000
   -5.0197   -1.0081   -0.1031 H   0  0  0  1  0  0  0  0  0  0  0  0
   -3.1261    3.4630   -1.1808 H   0  0  0  1  0  0  0  0  0  0  0  0
   -2.2907    3.5424    0.3516 H   0  0  0  1  0  0  0  0  0  0  0  0
   -3.1722    3.1955   -0.1458 C   0  0  0  1  0  0  0  0  0  0  0  0
   -4.0345    3.6452    0.3004 H   0  0  0  1  0  0  0  0  0  0  0  0
  -11.6924    3.5799    3.2002 N   0  0  0  1  0  0  0  0  0  0  0  0
  -11.1798    5.2971    0.1202 C   0  0  0  1  0  0  0  0  0  0  0  0
  -11.1951    6.4280   -0.8898 C   0  0  0  1  0  0  0  0  0  0  0  0
  -12.2272    4.7714    0.4948 O   0  0  0  1  0  0  0  0  0  0  0  0
  -12.2930    3.7379    4.5164 C   0  0  0  1  0  0  0  0  0  0  0  0
    1.5182    1.3349    1.8689 O   0  0  0  1  0  0  0  0  0  0  0  0
   -9.9617    4.9426    3.6114 O   0  0  0  1  0  0  0  0  0  0  0  0
   -9.9919    4.8883    0.5915 N   0  0  0  1  0  0  0  0  0  0  0  0
   -2.2888   -0.7097    7.0463 O   0  5  0  1  0  0  0  0  0  0  0  0
   -4.4537    1.0759   -0.1972 N   0  0  0  1  0  0  0  0  0  0  0  0
   -4.5144   -1.2915    6.9329 O   0  0  0  1  0  0  0  0  0  0  0  0
   -7.7860    2.9198    0.4354 C   0  0  0  1  0  0  0  0  0  0  0  0
   -8.4720    3.3211    1.7271 C   0  0  0  1  0  0  0  0  0  0  0  0
   -2.3050    0.7519    0.2701 C   0  0  0  1  0  0  0  0  0  0  0  0
   -6.4844    2.2715    0.6442 C   0  0  0  1  0  0  0  0  0  0  0  0
   -2.9485   -0.4942    0.2656 C   0  0  0  1  0  0  0  0  0  0  0  0
    2.0285    2.9355    0.1357 C   0  0  0  1  0  0  0  0  0  0  0  0
   -9.9207    3.7775    1.5290 C   0  0  0  1  0  0  0  0  0  0  0  0
   -5.7661    1.6364   -0.5205 C   0  0  0  1  0  0  0  0  0  0  0  0
   -2.3006   -1.8323    0.5321 C   0  0  0  1  0  0  0  0  0  0  0  0
  -10.5447    4.1752    2.8633 C   0  0  0  1  0  0  0  0  0  0  0  0
    1.0154    2.4716    1.1831 C   0  0  0  1  0  0  0  0  0  0  0  0
    3.3346    3.3424    0.7936 C   0  0  0  1  0  0  0  0  0  0  0  0
   -0.9119    0.9974    0.6232 C   0  0  0  1  0  0  0  0  0  0  0  0
    4.4726    3.6397   -0.1511 C   0  0  0  1  0  0  0  0  0  0  0  0
   -0.2940    2.1511    0.5351 C   0  0  0  1  0  0  0  0  0  0  0  0
   -3.2634    1.7138   -0.0186 C   0  0  0  1  0  0  0  0  0  0  0  0
    5.8113    3.8019    0.5503 C   0  0  0  1  0  0  0  0  0  0  0  0
   -4.2815   -0.2796   -0.0263 C   0  0  0  1  0  0  0  0  0  0  0  0
   -3.1260   -2.7699    1.3464 C   0  0  0  1  0  0  0  0  0  0  0  0
   -4.1325   -2.5163    2.1485 C   0  0  0  1  0  0  0  0  0  0  0  0
   -4.4906   -1.1537    2.6748 C   0  0  0  1  0  0  0  0  0  0  0  0
    6.9980    3.7571   -0.3984 C   0  0  0  1  0  0  0  0  0  0  0  0
   -4.6557   -1.1236    4.1820 C   0  0  0  1  0  0  0  0  0  0  0  0
   -3.3435   -1.2705    4.9350 C   0  0  0  1  0  0  0  0  0  0  0  0
   -3.4304   -1.0881    6.4113 C   0  0  0  1  0  0  0  0  0  0  0  0
  -12.1455    3.0173    2.5380 H   0  0  0  1  0  0  0  0  0  0  0  0
  -11.9893    6.2712   -1.5895 H   0  0  0  1  0  0  0  0  0  0  0  0
  -10.2609    6.4533   -1.4108 H   0  0  0  1  0  0  0  0  0  0  0  0
  -11.3461    7.3575   -0.3818 H   0  0  0  1  0  0  0  0  0  0  0  0
  -11.5515    4.0779    5.2088 H   0  0  0  1  0  0  0  0  0  0  0  0
  -12.6832    2.7974    4.8452 H   0  0  0  1  0  0  0  0  0  0  0  0
  -13.0858    4.4545    4.4627 H   0  0  0  1  0  0  0  0  0  0  0  0
    0.8327    0.9732    2.4352 H   0  0  0  1  0  0  0  0  0  0  0  0
   -9.1705    5.3388    0.3038 H   0  0  0  1  0  0  0  0  0  0  0  0
   -7.6363    3.7986   -0.1564 H   0  0  0  1  0  0  0  0  0  0  0  0
   -8.4234    2.2397   -0.0901 H   0  0  0  1  0  0  0  0  0  0  0  0
   -7.9205    4.1247    2.1686 H   0  0  0  1  0  0  0  0  0  0  0  0
   -8.4687    2.4799    2.3885 H   0  0  0  1  0  0  0  0  0  0  0  0
   -6.6354    1.5015    1.3717 H   0  0  0  1  0  0  0  0  0  0  0  0
   -5.8282    3.0165    1.0435 H   0  0  0  1  0  0  0  0  0  0  0  0
    1.6265    3.7737   -0.3941 H   0  0  0  1  0  0  0  0  0  0  0  0
    2.2153    2.1357   -0.5501 H   0  0  0  1  0  0  0  0  0  0  0  0
  -10.4767    2.9527    1.1348 H   0  0  0  1  0  0  0  0  0  0  0  0
   -6.3807    0.8476   -0.9011 H   0  0  0  1  0  0  0  0  0  0  0  0
   -5.6329    2.3819   -1.2765 H   0  0  0  1  0  0  0  0  0  0  0  0
   -1.3809   -1.6603    1.0513 H   0  0  0  1  0  0  0  0  0  0  0  0
   -2.0974   -2.2982   -0.4094 H   0  0  0  1  0  0  0  0  0  0  0  0
    0.8607    3.2717    1.8765 H   0  0  0  1  0  0  0  0  0  0  0  0
    3.6412    2.5453    1.4383 H   0  0  0  1  0  0  0  0  0  0  0  0
    3.1508    4.2215    1.3752 H   0  0  0  1  0  0  0  0  0  0  0  0
   -0.3610    0.1886    0.9751 H   0  0  0  1  0  0  0  0  0  0  0  0
    4.2514    4.5467   -0.6739 H   0  0  0  1  0  0  0  0  0  0  0  0
    4.5518    2.8342   -0.8510 H   0  0  0  1  0  0  0  0  0  0  0  0
   -0.7484    2.8987   -0.0273 H   0  0  0  1  0  0  0  0  0  0  0  0
    5.9180    3.0124    1.2646 H   0  0  0  1  0  0  0  0  0  0  0  0
    5.8170    4.7446    1.0564 H   0  0  0  1  0  0  0  0  0  0  0  0
   -2.8651   -3.7734    1.2666 H   0  0  0  1  0  0  0  0  0  0  0  0
   -4.7272   -3.3173    2.4423 H   0  0  0  1  0  0  0  0  0  0  0  0
   -5.4114   -0.8461    2.2251 H   0  0  0  1  0  0  0  0  0  0  0  0
   -3.7143   -0.4690    2.4035 H   0  0  0  1  0  0  0  0  0  0  0  0
    7.9067    3.7465    0.1664 H   0  0  0  1  0  0  0  0  0  0  0  0
    6.9815    4.6201   -1.0308 H   0  0  0  1  0  0  0  0  0  0  0  0
    6.9412    2.8732   -0.9988 H   0  0  0  1  0  0  0  0  0  0  0  0
   -5.3029   -1.9260    4.4685 H   0  0  0  1  0  0  0  0  0  0  0  0
   -5.1013   -0.1901    4.4559 H   0  0  0  1  0  0  0  0  0  0  0  0
   -2.6598   -0.5420    4.5521 H   0  0  0  1  0  0  0  0  0  0  0  0
   -2.9625   -2.2523    4.7457 H   0  0  0  1  0  0  0  0  0  0  0  0
  1 34  1  0  0  0  0
  2  4  1  0  0  0  0
  3  4  1  0  0  0  0
  4  5  1  0  0  0  0
  4 32  1  0  0  0  0
  6 10  1  0  0  0  0
  6 26  1  0  0  0  0
  6 42  1  0  0  0  0
  7  8  1  0  0  0  0
  7  9  2  0  0  0  0
  7 13  1  0  0  0  0
  8 43  1  0  0  0  0
  8 44  1  0  0  0  0
  8 45  1  0  0  0  0
 10 46  1  0  0  0  0
 10 47  1  0  0  0  0
 10 48  1  0  0  0  0
 11 27  1  0  0  0  0
 11 49  1  0  0  0  0
 12 26  2  0  0  0  0
 13 23  1  0  0  0  0
 13 50  1  0  0  0  0
 14 41  1  0  0  0  0
 15 24  1  0  0  0  0
 15 32  4  0  0  0  0
 15 34  4  0  0  0  0
 16 41  2  0  0  0  0
 17 18  1  0  0  0  0
 17 20  1  0  0  0  0
 17 51  1  0  0  0  0
 17 52  1  0  0  0  0
 18 23  1  0  0  0  0
 18 53  1  0  0  0  0
 18 54  1  0  0  0  0
 19 21  4  0  0  0  0
 19 29  1  0  0  0  0
 19 32  4  0  0  0  0
 20 24  1  0  0  0  0
 20 55  1  0  0  0  0
 20 56  1  0  0  0  0
 21 25  1  0  0  0  0
 21 34  4  0  0  0  0
 22 27  1  0  0  0  0
 22 28  1  0  0  0  0
 22 57  1  0  0  0  0
 22 58  1  0  0  0  0
 23 26  1  0  0  0  0
 23 59  1  0  0  0  0
 24 60  1  0  0  0  0
 24 61  1  0  0  0  0
 25 35  1  0  0  0  0
 25 62  1  0  0  0  0
 25 63  1  0  0  0  0
 27 31  1  0  0  0  0
 27 64  1  0  0  0  0
 28 30  1  0  0  0  0
 28 65  1  0  0  0  0
 28 66  1  0  0  0  0
 29 31  2  0  0  0  0
 29 67  1  0  0  0  0
 30 33  1  0  0  0  0
 30 68  1  0  0  0  0
 30 69  1  0  0  0  0
 31 70  1  0  0  0  0
 33 38  1  0  0  0  0
 33 71  1  0  0  0  0
 33 72  1  0  0  0  0
 35 36  2  0  0  0  0
 35 73  1  0  0  0  0
 36 37  1  0  0  0  0
 36 74  1  0  0  0  0
 37 39  1  0  0  0  0
 37 75  1  0  0  0  0
 37 76  1  0  0  0  0
 38 77  1  0  0  0  0
 38 78  1  0  0  0  0
 38 79  1  0  0  0  0
 39 40  1  0  0  0  0
 39 80  1  0  0  0  0
 39 81  1  0  0  0  0
 40 41  1  0  0  0  0
 40 82  1  0  0  0  0
 40 83  1  0  0  0  0
M  END
> <ConfClashScore>
0 

> <ConfOneFourInteractionScore>
-0.994101 

> <ConfScore>
-0.10624 

> <ConfScorePBest>
0.00697941 

> <ConfTolerance>
1.62625 

$$$$
9548876
  PyMOL2.2          3D                             0

 83 83  0  0  0  0  0  0  0  0999 V2000
   -5.0221   -1.0452   -0.0951 H   0  0  0  1  0  0  0  0  0  0  0  0
   -3.8684    3.5844   -0.8033 H   0  0  0  1  0  0  0  0  0  0  0  0
   -2.1632    3.4071   -0.4665 H   0  0  0  1  0  0  0  0  0  0  0  0
   -3.1502    3.1894   -0.1154 C   0  0  0  1  0  0  0  0  0  0  0  0
   -3.2941    3.6366    0.8460 H   0  0  0  1  0  0  0  0  0  0  0  0
   -8.9991    2.3775   -6.6311 N   0  0  0  1  0  0  0  0  0  0  0  0
  -10.5712    3.8241   -3.7110 C   0  0  0  1  0  0  0  0  0  0  0  0
  -11.8167    3.1354   -3.2143 C   0  0  0  1  0  0  0  0  0  0  0  0
  -10.5075    5.0401   -3.7867 O   0  0  0  1  0  0  0  0  0  0  0  0
   -9.3330    2.1906   -8.0352 C   0  0  0  1  0  0  0  0  0  0  0  0
    1.8788   -0.3886    1.9448 O   0  0  0  1  0  0  0  0  0  0  0  0
   -8.0234    4.4014   -6.8274 O   0  0  0  1  0  0  0  0  0  0  0  0
   -9.5571    3.0166   -4.0570 N   0  0  0  1  0  0  0  0  0  0  0  0
   -0.9193   -5.9829    3.5669 O   0  5  0  1  0  0  0  0  0  0  0  0
   -4.4994    1.0500   -0.1934 N   0  0  0  1  0  0  0  0  0  0  0  0
    0.3195   -6.8996    1.9072 O   0  0  0  1  0  0  0  0  0  0  0  0
   -7.1380    2.4243   -2.6145 C   0  0  0  1  0  0  0  0  0  0  0  0
   -7.1504    2.6745   -4.1021 C   0  0  0  1  0  0  0  0  0  0  0  0
   -2.3484    0.7734    0.2938 C   0  0  0  1  0  0  0  0  0  0  0  0
   -5.9057    1.6713   -2.1404 C   0  0  0  1  0  0  0  0  0  0  0  0
   -2.9655   -0.4861    0.2891 C   0  0  0  1  0  0  0  0  0  0  0  0
    2.5903    0.3742   -0.1553 C   0  0  0  1  0  0  0  0  0  0  0  0
   -8.3144    3.5257   -4.6177 C   0  0  0  1  0  0  0  0  0  0  0  0
   -5.7724    1.6261   -0.6277 C   0  0  0  1  0  0  0  0  0  0  0  0
   -2.2419   -1.7807    0.5749 C   0  0  0  1  0  0  0  0  0  0  0  0
   -8.4057    3.4690   -6.1397 C   0  0  0  1  0  0  0  0  0  0  0  0
    1.4939    0.5158    0.9111 C   0  0  0  1  0  0  0  0  0  0  0  0
    2.5077    1.4970   -1.1594 C   0  0  0  1  0  0  0  0  0  0  0  0
   -0.9237    1.0395    0.4711 C   0  0  0  1  0  0  0  0  0  0  0  0
    3.5103    1.4299   -2.2999 C   0  0  0  1  0  0  0  0  0  0  0  0
    0.1086    0.2352    0.4218 C   0  0  0  1  0  0  0  0  0  0  0  0
   -3.3244    1.7136   -0.0074 C   0  0  0  1  0  0  0  0  0  0  0  0
    4.9153    1.2099   -1.7689 C   0  0  0  1  0  0  0  0  0  0  0  0
   -4.3001   -0.3009   -0.0152 C   0  0  0  1  0  0  0  0  0  0  0  0
   -2.2079   -2.6806   -0.6108 C   0  0  0  1  0  0  0  0  0  0  0  0
   -1.0821   -3.1887   -1.0457 C   0  0  0  1  0  0  0  0  0  0  0  0
    0.2331   -3.2378   -0.3150 C   0  0  0  1  0  0  0  0  0  0  0  0
    5.9512    1.0250   -2.8646 C   0  0  0  1  0  0  0  0  0  0  0  0
    0.4592   -4.5533    0.4186 C   0  0  0  1  0  0  0  0  0  0  0  0
   -0.5634   -4.7326    1.5329 C   0  0  0  1  0  0  0  0  0  0  0  0
   -0.3409   -5.9678    2.3361 C   0  0  0  1  0  0  0  0  0  0  0  0
   -9.2237    1.6567   -6.0063 H   0  0  0  1  0  0  0  0  0  0  0  0
  -12.6034    3.8528   -3.1080 H   0  0  0  1  0  0  0  0  0  0  0  0
  -11.6186    2.6806   -2.2663 H   0  0  0  1  0  0  0  0  0  0  0  0
  -12.1124    2.3838   -3.9162 H   0  0  0  1  0  0  0  0  0  0  0  0
   -8.9559    3.0143   -8.6047 H   0  0  0  1  0  0  0  0  0  0  0  0
  -10.3961    2.1385   -8.1448 H   0  0  0  1  0  0  0  0  0  0  0  0
   -8.8925    1.2817   -8.3884 H   0  0  0  1  0  0  0  0  0  0  0  0
    2.8365   -0.4189    2.0039 H   0  0  0  1  0  0  0  0  0  0  0  0
   -9.6567    2.0503   -3.9276 H   0  0  0  1  0  0  0  0  0  0  0  0
   -8.0048    1.8510   -2.3596 H   0  0  0  1  0  0  0  0  0  0  0  0
   -7.1733    3.3680   -2.1114 H   0  0  0  1  0  0  0  0  0  0  0  0
   -7.1919    1.7260   -4.5955 H   0  0  0  1  0  0  0  0  0  0  0  0
   -6.2389    3.1719   -4.3603 H   0  0  0  1  0  0  0  0  0  0  0  0
   -5.0386    2.1519   -2.5431 H   0  0  0  1  0  0  0  0  0  0  0  0
   -5.9599    0.6673   -2.5063 H   0  0  0  1  0  0  0  0  0  0  0  0
    2.4677   -0.5599   -0.6625 H   0  0  0  1  0  0  0  0  0  0  0  0
    3.5481    0.3991    0.3209 H   0  0  0  1  0  0  0  0  0  0  0  0
   -8.1645    4.5407   -4.3143 H   0  0  0  1  0  0  0  0  0  0  0  0
   -5.8448    2.6236   -0.2472 H   0  0  0  1  0  0  0  0  0  0  0  0
   -6.5700    1.0336   -0.2308 H   0  0  0  1  0  0  0  0  0  0  0  0
   -2.7415   -2.2849    1.3756 H   0  0  0  1  0  0  0  0  0  0  0  0
   -1.2369   -1.5564    0.8659 H   0  0  0  1  0  0  0  0  0  0  0  0
    1.5232    1.5179    1.2851 H   0  0  0  1  0  0  0  0  0  0  0  0
    2.6634    2.4180   -0.6375 H   0  0  0  1  0  0  0  0  0  0  0  0
    1.5253    1.4884   -1.5834 H   0  0  0  1  0  0  0  0  0  0  0  0
   -0.6898    2.0332    0.6695 H   0  0  0  1  0  0  0  0  0  0  0  0
    3.4818    2.3492   -2.8467 H   0  0  0  1  0  0  0  0  0  0  0  0
    3.2498    0.6201   -2.9489 H   0  0  0  1  0  0  0  0  0  0  0  0
   -0.0523   -0.7000   -0.0037 H   0  0  0  1  0  0  0  0  0  0  0  0
    4.9123    0.3345   -1.1537 H   0  0  0  1  0  0  0  0  0  0  0  0
    5.1923    2.0593   -1.1800 H   0  0  0  1  0  0  0  0  0  0  0  0
   -3.0950   -2.9100   -1.1029 H   0  0  0  1  0  0  0  0  0  0  0  0
   -1.0983   -3.6032   -1.9994 H   0  0  0  1  0  0  0  0  0  0  0  0
    0.2559   -2.4413    0.3991 H   0  0  0  1  0  0  0  0  0  0  0  0
    1.0223   -3.1038   -1.0250 H   0  0  0  1  0  0  0  0  0  0  0  0
    6.8934    0.7703   -2.4261 H   0  0  0  1  0  0  0  0  0  0  0  0
    6.0503    1.9350   -3.4187 H   0  0  0  1  0  0  0  0  0  0  0  0
    5.6395    0.2394   -3.5208 H   0  0  0  1  0  0  0  0  0  0  0  0
    1.4423   -4.5549    0.8410 H   0  0  0  1  0  0  0  0  0  0  0  0
    0.3674   -5.3624   -0.2755 H   0  0  0  1  0  0  0  0  0  0  0  0
   -1.5387   -4.7820    1.0955 H   0  0  0  1  0  0  0  0  0  0  0  0
   -0.5073   -3.8870    2.1861 H   0  0  0  1  0  0  0  0  0  0  0  0
  1 34  1  0  0  0  0
  2  4  1  0  0  0  0
  3  4  1  0  0  0  0
  4  5  1  0  0  0  0
  4 32  1  0  0  0  0
  6 10  1  0  0  0  0
  6 26  1  0  0  0  0
  6 42  1  0  0  0  0
  7  8  1  0  0  0  0
  7  9  2  0  0  0  0
  7 13  1  0  0  0  0
  8 43  1  0  0  0  0
  8 44  1  0  0  0  0
  8 45  1  0  0  0  0
 10 46  1  0  0  0  0
 10 47  1  0  0  0  0
 10 48  1  0  0  0  0
 11 27  1  0  0  0  0
 11 49  1  0  0  0  0
 12 26  2  0  0  0  0
 13 23  1  0  0  0  0
 13 50  1  0  0  0  0
 14 41  1  0  0  0  0
 15 24  1  0  0  0  0
 15 32  4  0  0  0  0
 15 34  4  0  0  0  0
 16 41  2  0  0  0  0
 17 18  1  0  0  0  0
 17 20  1  0  0  0  0
 17 51  1  0  0  0  0
 17 52  1  0  0  0  0
 18 23  1  0  0  0  0
 18 53  1  0  0  0  0
 18 54  1  0  0  0  0
 19 21  4  0  0  0  0
 19 29  1  0  0  0  0
 19 32  4  0  0  0  0
 20 24  1  0  0  0  0
 20 55  1  0  0  0  0
 20 56  1  0  0  0  0
 21 25  1  0  0  0  0
 21 34  4  0  0  0  0
 22 27  1  0  0  0  0
 22 28  1  0  0  0  0
 22 57  1  0  0  0  0
 22 58  1  0  0  0  0
 23 26  1  0  0  0  0
 23 59  1  0  0  0  0
 24 60  1  0  0  0  0
 24 61  1  0  0  0  0
 25 35  1  0  0  0  0
 25 62  1  0  0  0  0
 25 63  1  0  0  0  0
 27 31  1  0  0  0  0
 27 64  1  0  0  0  0
 28 30  1  0  0  0  0
 28 65  1  0  0  0  0
 28 66  1  0  0  0  0
 29 31  2  0  0  0  0
 29 67  1  0  0  0  0
 30 33  1  0  0  0  0
 30 68  1  0  0  0  0
 30 69  1  0  0  0  0
 31 70  1  0  0  0  0
 33 38  1  0  0  0  0
 33 71  1  0  0  0  0
 33 72  1  0  0  0  0
 35 36  2  0  0  0  0
 35 73  1  0  0  0  0
 36 37  1  0  0  0  0
 36 74  1  0  0  0  0
 37 39  1  0  0  0  0
 37 75  1  0  0  0  0
 37 76  1  0  0  0  0
 38 77  1  0  0  0  0
 38 78  1  0  0  0  0
 38 79  1  0  0  0  0
 39 40  1  0  0  0  0
 39 80  1  0  0  0  0
 39 81  1  0  0  0  0
 40 41  1  0  0  0  0
 40 82  1  0  0  0  0
 40 83  1  0  0  0  0
M  END
> <ConfClashScore>
0 

> <ConfOneFourInteractionScore>
-0.982895 

> <ConfScore>
-0.106207 

> <ConfScorePBest>
0.00695093 

> <ConfTolerance>
1.52615 

$$$$
9548876
  PyMOL2.2          3D                             0

 83 83  0  0  0  0  0  0  0  0999 V2000
   -4.9973   -1.0448   -0.1030 H   0  0  0  1  0  0  0  0  0  0  0  0
   -4.0481    3.6511    0.2661 H   0  0  0  1  0  0  0  0  0  0  0  0
   -3.0734    3.4536   -1.1704 H   0  0  0  1  0  0  0  0  0  0  0  0
   -3.1723    3.1883   -0.1385 C   0  0  0  1  0  0  0  0  0  0  0  0
   -2.3109    3.5233    0.4006 H   0  0  0  1  0  0  0  0  0  0  0  0
  -11.4988    2.3745    0.8905 N   0  0  0  1  0  0  0  0  0  0  0  0
  -11.8070    5.1925    2.1168 C   0  0  0  1  0  0  0  0  0  0  0  0
  -12.3352    5.7728    3.4268 C   0  0  0  1  0  0  0  0  0  0  0  0
  -12.4897    5.2132    1.0935 O   0  0  0  1  0  0  0  0  0  0  0  0
  -12.3934    1.3913    0.2981 C   0  0  0  1  0  0  0  0  0  0  0  0
    1.7457    2.1464    0.3545 O   0  0  0  1  0  0  0  0  0  0  0  0
  -10.6460    3.2265   -1.0157 O   0  0  0  1  0  0  0  0  0  0  0  0
  -10.6041    4.6024    2.2001 N   0  0  0  1  0  0  0  0  0  0  0  0
   -0.1915   -8.1397    2.2702 O   0  5  0  1  0  0  0  0  0  0  0  0
   -4.4672    1.0484   -0.2025 N   0  0  0  1  0  0  0  0  0  0  0  0
   -2.0797   -6.8942    2.6254 O   0  0  0  1  0  0  0  0  0  0  0  0
   -7.7196    2.9899    0.3394 C   0  0  0  1  0  0  0  0  0  0  0  0
   -8.5838    3.3929    1.5243 C   0  0  0  1  0  0  0  0  0  0  0  0
   -2.3178    0.7647    0.2875 C   0  0  0  1  0  0  0  0  0  0  0  0
   -6.4739    2.2100    0.6796 C   0  0  0  1  0  0  0  0  0  0  0  0
   -2.9393   -0.4925    0.2832 C   0  0  0  1  0  0  0  0  0  0  0  0
    2.3647    0.0621    1.4207 C   0  0  0  1  0  0  0  0  0  0  0  0
   -9.8446    4.1291    1.0525 C   0  0  0  1  0  0  0  0  0  0  0  0
   -5.7425    1.6803   -0.5421 C   0  0  0  1  0  0  0  0  0  0  0  0
   -2.3253   -1.8457    0.5542 C   0  0  0  1  0  0  0  0  0  0  0  0
  -10.6837    3.1793    0.2028 C   0  0  0  1  0  0  0  0  0  0  0  0
    1.5627    0.7393    0.3261 C   0  0  0  1  0  0  0  0  0  0  0  0
    3.8582    0.3220    1.3217 C   0  0  0  1  0  0  0  0  0  0  0  0
   -0.9167    1.0753    0.5542 C   0  0  0  1  0  0  0  0  0  0  0  0
    4.6568   -0.3231    2.4399 C   0  0  0  1  0  0  0  0  0  0  0  0
    0.1284    0.3152    0.3426 C   0  0  0  1  0  0  0  0  0  0  0  0
   -3.2901    1.7081   -0.0157 C   0  0  0  1  0  0  0  0  0  0  0  0
    6.1547   -0.1029    2.3148 C   0  0  0  1  0  0  0  0  0  0  0  0
   -4.2729   -0.3029   -0.0229 C   0  0  0  1  0  0  0  0  0  0  0  0
   -1.4792   -2.3213   -0.5838 C   0  0  0  1  0  0  0  0  0  0  0  0
   -1.2470   -3.5778   -0.8701 C   0  0  0  1  0  0  0  0  0  0  0  0
   -1.7091   -4.7769   -0.1047 C   0  0  0  1  0  0  0  0  0  0  0  0
    6.9385   -0.5919    3.5218 C   0  0  0  1  0  0  0  0  0  0  0  0
   -0.7668   -5.9550   -0.1177 C   0  0  0  1  0  0  0  0  0  0  0  0
   -1.3479   -7.2633    0.3932 C   0  0  0  1  0  0  0  0  0  0  0  0
   -1.2625   -7.4008    1.8744 C   0  0  0  1  0  0  0  0  0  0  0  0
  -11.4939    2.4522    1.8674 H   0  0  0  1  0  0  0  0  0  0  0  0
  -13.3193    6.1640    3.2730 H   0  0  0  1  0  0  0  0  0  0  0  0
  -11.6870    6.5580    3.7558 H   0  0  0  1  0  0  0  0  0  0  0  0
  -12.3696    5.0032    4.1693 H   0  0  0  1  0  0  0  0  0  0  0  0
  -11.8466    0.4987    0.0765 H   0  0  0  1  0  0  0  0  0  0  0  0
  -12.8106    1.7870   -0.6042 H   0  0  0  1  0  0  0  0  0  0  0  0
  -13.1807    1.1653    0.9866 H   0  0  0  1  0  0  0  0  0  0  0  0
    1.3407    2.5062    1.1471 H   0  0  0  1  0  0  0  0  0  0  0  0
  -10.2125    4.4827    3.0905 H   0  0  0  1  0  0  0  0  0  0  0  0
   -7.4209    3.8826   -0.1694 H   0  0  0  1  0  0  0  0  0  0  0  0
   -8.3164    2.3889   -0.3145 H   0  0  0  1  0  0  0  0  0  0  0  0
   -8.0206    4.0376    2.1662 H   0  0  0  1  0  0  0  0  0  0  0  0
   -8.8715    2.5146    2.0635 H   0  0  0  1  0  0  0  0  0  0  0  0
   -6.7509    1.3801    1.2955 H   0  0  0  1  0  0  0  0  0  0  0  0
   -5.8098    2.8508    1.2212 H   0  0  0  1  0  0  0  0  0  0  0  0
    2.1993   -0.9933    1.3591 H   0  0  0  1  0  0  0  0  0  0  0  0
    2.0195    0.4230    2.3670 H   0  0  0  1  0  0  0  0  0  0  0  0
   -9.5488    4.9610    0.4480 H   0  0  0  1  0  0  0  0  0  0  0  0
   -6.3647    0.9577   -1.0275 H   0  0  0  1  0  0  0  0  0  0  0  0
   -5.5544    2.4954   -1.2092 H   0  0  0  1  0  0  0  0  0  0  0  0
   -3.1107   -2.5535    0.7186 H   0  0  0  1  0  0  0  0  0  0  0  0
   -1.7162   -1.7780    1.4313 H   0  0  0  1  0  0  0  0  0  0  0  0
    1.9645    0.3849   -0.6001 H   0  0  0  1  0  0  0  0  0  0  0  0
    4.0215    1.3790    1.3544 H   0  0  0  1  0  0  0  0  0  0  0  0
    4.2087   -0.0648    0.3877 H   0  0  0  1  0  0  0  0  0  0  0  0
   -0.7255    2.0130    0.9613 H   0  0  0  1  0  0  0  0  0  0  0  0
    4.4666   -1.3760    2.4288 H   0  0  0  1  0  0  0  0  0  0  0  0
    4.3299    0.0890    3.3717 H   0  0  0  1  0  0  0  0  0  0  0  0
   -0.0592   -0.6925    0.1671 H   0  0  0  1  0  0  0  0  0  0  0  0
    6.3347    0.9450    2.1952 H   0  0  0  1  0  0  0  0  0  0  0  0
    6.5034   -0.6263    1.4491 H   0  0  0  1  0  0  0  0  0  0  0  0
   -1.0428   -1.6003   -1.1932 H   0  0  0  1  0  0  0  0  0  0  0  0
   -0.6797   -3.7620   -1.7221 H   0  0  0  1  0  0  0  0  0  0  0  0
   -2.6416   -5.0955   -0.5216 H   0  0  0  1  0  0  0  0  0  0  0  0
   -1.8551   -4.4824    0.9136 H   0  0  0  1  0  0  0  0  0  0  0  0
    7.9700   -0.3314    3.4073 H   0  0  0  1  0  0  0  0  0  0  0  0
    6.8460   -1.6550    3.6001 H   0  0  0  1  0  0  0  0  0  0  0  0
    6.5514   -0.1334    4.4078 H   0  0  0  1  0  0  0  0  0  0  0  0
    0.0772   -5.7088    0.4922 H   0  0  0  1  0  0  0  0  0  0  0  0
   -0.4456   -6.1089   -1.1267 H   0  0  0  1  0  0  0  0  0  0  0  0
   -0.8109   -8.0728   -0.0555 H   0  0  0  1  0  0  0  0  0  0  0  0
   -2.3771   -7.3144    0.1052 H   0  0  0  1  0  0  0  0  0  0  0  0
  1 34  1  0  0  0  0
  2  4  1  0  0  0  0
  3  4  1  0  0  0  0
  4  5  1  0  0  0  0
  4 32  1  0  0  0  0
  6 10  1  0  0  0  0
  6 26  1  0  0  0  0
  6 42  1  0  0  0  0
  7  8  1  0  0  0  0
  7  9  2  0  0  0  0
  7 13  1  0  0  0  0
  8 43  1  0  0  0  0
  8 44  1  0  0  0  0
  8 45  1  0  0  0  0
 10 46  1  0  0  0  0
 10 47  1  0  0  0  0
 10 48  1  0  0  0  0
 11 27  1  0  0  0  0
 11 49  1  0  0  0  0
 12 26  2  0  0  0  0
 13 23  1  0  0  0  0
 13 50  1  0  0  0  0
 14 41  1  0  0  0  0
 15 24  1  0  0  0  0
 15 32  4  0  0  0  0
 15 34  4  0  0  0  0
 16 41  2  0  0  0  0
 17 18  1  0  0  0  0
 17 20  1  0  0  0  0
 17 51  1  0  0  0  0
 17 52  1  0  0  0  0
 18 23  1  0  0  0  0
 18 53  1  0  0  0  0
 18 54  1  0  0  0  0
 19 21  4  0  0  0  0
 19 29  1  0  0  0  0
 19 32  4  0  0  0  0
 20 24  1  0  0  0  0
 20 55  1  0  0  0  0
 20 56  1  0  0  0  0
 21 25  1  0  0  0  0
 21 34  4  0  0  0  0
 22 27  1  0  0  0  0
 22 28  1  0  0  0  0
 22 57  1  0  0  0  0
 22 58  1  0  0  0  0
 23 26  1  0  0  0  0
 23 59  1  0  0  0  0
 24 60  1  0  0  0  0
 24 61  1  0  0  0  0
 25 35  1  0  0  0  0
 25 62  1  0  0  0  0
 25 63  1  0  0  0  0
 27 31  1  0  0  0  0
 27 64  1  0  0  0  0
 28 30  1  0  0  0  0
 28 65  1  0  0  0  0
 28 66  1  0  0  0  0
 29 31  2  0  0  0  0
 29 67  1  0  0  0  0
 30 33  1  0  0  0  0
 30 68  1  0  0  0  0
 30 69  1  0  0  0  0
 31 70  1  0  0  0  0
 33 38  1  0  0  0  0
 33 71  1  0  0  0  0
 33 72  1  0  0  0  0
 35 36  2  0  0  0  0
 35 73  1  0  0  0  0
 36 37  1  0  0  0  0
 36 74  1  0  0  0  0
 37 39  1  0  0  0  0
 37 75  1  0  0  0  0
 37 76  1  0  0  0  0
 38 77  1  0  0  0  0
 38 78  1  0  0  0  0
 38 79  1  0  0  0  0
 39 40  1  0  0  0  0
 39 80  1  0  0  0  0
 39 81  1  0  0  0  0
 40 41  1  0  0  0  0
 40 82  1  0  0  0  0
 40 83  1  0  0  0  0
M  END
> <ConfClashScore>
0 

> <ConfOneFourInteractionScore>
-0.988037 

> <ConfScore>
-0.105157 

> <ConfScorePBest>
0.00692245 

> <ConfTolerance>
1.41473 

$$$$
9548876
  PyMOL2.2          3D                             0

 83 83  0  0  0  0  0  0  0  0999 V2000
   -5.0087   -1.0356   -0.0791 H   0  0  0  1  0  0  0  0  0  0  0  0
   -3.9137    3.5563   -0.8235 H   0  0  0  1  0  0  0  0  0  0  0  0
   -2.2023    3.4471   -0.4889 H   0  0  0  1  0  0  0  0  0  0  0  0
   -3.1797    3.1956   -0.1334 C   0  0  0  1  0  0  0  0  0  0  0  0
   -3.3386    3.6464    0.8239 H   0  0  0  1  0  0  0  0  0  0  0  0
   -9.8114    2.9439    4.4426 N   0  0  0  1  0  0  0  0  0  0  0  0
   -6.7126    3.2640    4.1084 C   0  0  0  1  0  0  0  0  0  0  0  0
   -5.4746    2.5211    4.5716 C   0  0  0  1  0  0  0  0  0  0  0  0
   -7.0153    4.3550    4.5891 O   0  0  0  1  0  0  0  0  0  0  0  0
  -10.7886    3.2166    5.4859 C   0  0  0  1  0  0  0  0  0  0  0  0
    1.3679    1.5849    2.3720 O   0  0  0  1  0  0  0  0  0  0  0  0
  -10.1137    4.8928    3.3788 O   0  0  0  1  0  0  0  0  0  0  0  0
   -7.3959    2.7090    3.0949 N   0  0  0  1  0  0  0  0  0  0  0  0
   -5.1289   -8.0001    1.4143 O   0  5  0  1  0  0  0  0  0  0  0  0
   -4.4776    1.0571   -0.1832 N   0  0  0  1  0  0  0  0  0  0  0  0
   -5.1771   -6.8847    3.3962 O   0  0  0  1  0  0  0  0  0  0  0  0
   -8.0409    2.4456    0.1298 C   0  0  0  1  0  0  0  0  0  0  0  0
   -9.0235    2.5575    1.2690 C   0  0  0  1  0  0  0  0  0  0  0  0
   -2.3225    0.7706    0.2793 C   0  0  0  1  0  0  0  0  0  0  0  0
   -6.6729    1.9426    0.5611 C   0  0  0  1  0  0  0  0  0  0  0  0
   -2.9453   -0.4860    0.2816 C   0  0  0  1  0  0  0  0  0  0  0  0
    2.0799   -0.6659    2.1113 C   0  0  0  1  0  0  0  0  0  0  0  0
   -8.5131    3.4023    2.4238 C   0  0  0  1  0  0  0  0  0  0  0  0
   -5.7313    1.6835   -0.6036 C   0  0  0  1  0  0  0  0  0  0  0  0
   -2.2745   -1.8121    0.5517 C   0  0  0  1  0  0  0  0  0  0  0  0
   -9.5755    3.7999    3.4442 C   0  0  0  1  0  0  0  0  0  0  0  0
    1.3800    0.5230    1.4445 C   0  0  0  1  0  0  0  0  0  0  0  0
    3.5422   -0.7013    1.7420 C   0  0  0  1  0  0  0  0  0  0  0  0
   -0.8995    0.9637    0.5439 C   0  0  0  1  0  0  0  0  0  0  0  0
    4.2913   -1.9561    2.1572 C   0  0  0  1  0  0  0  0  0  0  0  0
    0.0077    0.1314    0.9964 C   0  0  0  1  0  0  0  0  0  0  0  0
   -3.2975    1.7153   -0.0106 C   0  0  0  1  0  0  0  0  0  0  0  0
    5.6891   -2.0465    1.5668 C   0  0  0  1  0  0  0  0  0  0  0  0
   -4.2825   -0.2946   -0.0074 C   0  0  0  1  0  0  0  0  0  0  0  0
   -2.1340   -2.0379    2.0236 C   0  0  0  1  0  0  0  0  0  0  0  0
   -2.6857   -3.0260    2.6868 C   0  0  0  1  0  0  0  0  0  0  0  0
   -3.2902   -4.2788    2.1115 C   0  0  0  1  0  0  0  0  0  0  0  0
    6.3111   -3.4270    1.6996 C   0  0  0  1  0  0  0  0  0  0  0  0
   -2.6966   -5.5401    2.6881 C   0  0  0  1  0  0  0  0  0  0  0  0
   -3.1797   -6.8372    2.0600 C   0  0  0  1  0  0  0  0  0  0  0  0
   -4.5820   -7.2212    2.3858 C   0  0  0  1  0  0  0  0  0  0  0  0
   -9.3088    2.1032    4.4733 H   0  0  0  1  0  0  0  0  0  0  0  0
   -4.8195    2.3652    3.7401 H   0  0  0  1  0  0  0  0  0  0  0  0
   -5.7596    1.5753    4.9830 H   0  0  0  1  0  0  0  0  0  0  0  0
   -4.9711    3.0984    5.3187 H   0  0  0  1  0  0  0  0  0  0  0  0
  -10.8865    4.2742    5.6160 H   0  0  0  1  0  0  0  0  0  0  0  0
  -10.4631    2.7733    6.4038 H   0  0  0  1  0  0  0  0  0  0  0  0
  -11.7346    2.8029    5.2052 H   0  0  0  1  0  0  0  0  0  0  0  0
    0.8957    2.3322    1.9974 H   0  0  0  1  0  0  0  0  0  0  0  0
   -7.1442    1.8123    2.7899 H   0  0  0  1  0  0  0  0  0  0  0  0
   -7.9227    3.4128   -0.3125 H   0  0  0  1  0  0  0  0  0  0  0  0
   -8.4385    1.7672   -0.5958 H   0  0  0  1  0  0  0  0  0  0  0  0
   -9.2324    1.5738    1.6347 H   0  0  0  1  0  0  0  0  0  0  0  0
   -9.9245    2.9993    0.8977 H   0  0  0  1  0  0  0  0  0  0  0  0
   -6.8027    1.0287    1.1023 H   0  0  0  1  0  0  0  0  0  0  0  0
   -6.2278    2.6761    1.2005 H   0  0  0  1  0  0  0  0  0  0  0  0
    1.6144   -1.5735    1.7881 H   0  0  0  1  0  0  0  0  0  0  0  0
    1.9884   -0.5762    3.1736 H   0  0  0  1  0  0  0  0  0  0  0  0
   -8.1270    4.3079    2.0046 H   0  0  0  1  0  0  0  0  0  0  0  0
   -6.2201    1.0371   -1.3024 H   0  0  0  1  0  0  0  0  0  0  0  0
   -5.5066    2.6165   -1.0769 H   0  0  0  1  0  0  0  0  0  0  0  0
   -1.3041   -1.8139    0.1011 H   0  0  0  1  0  0  0  0  0  0  0  0
   -2.8657   -2.5979    0.1299 H   0  0  0  1  0  0  0  0  0  0  0  0
    1.9481    0.8026    0.5819 H   0  0  0  1  0  0  0  0  0  0  0  0
    4.0197    0.1363    2.2061 H   0  0  0  1  0  0  0  0  0  0  0  0
    3.6158   -0.6103    0.6785 H   0  0  0  1  0  0  0  0  0  0  0  0
   -0.5466    1.9204    0.3396 H   0  0  0  1  0  0  0  0  0  0  0  0
    3.7308   -2.8083    1.8341 H   0  0  0  1  0  0  0  0  0  0  0  0
    4.3724   -1.9654    3.2241 H   0  0  0  1  0  0  0  0  0  0  0  0
   -0.2460   -0.8759    1.0474 H   0  0  0  1  0  0  0  0  0  0  0  0
    6.3166   -1.3417    2.0712 H   0  0  0  1  0  0  0  0  0  0  0  0
    5.6352   -1.7972    0.5277 H   0  0  0  1  0  0  0  0  0  0  0  0
   -1.5557   -1.3611    2.5612 H   0  0  0  1  0  0  0  0  0  0  0  0
   -2.7079   -2.9338    3.7225 H   0  0  0  1  0  0  0  0  0  0  0  0
   -3.1298   -4.2796    1.0536 H   0  0  0  1  0  0  0  0  0  0  0  0
   -4.3410   -4.2737    2.3134 H   0  0  0  1  0  0  0  0  0  0  0  0
    7.3488   -3.3294    1.9416 H   0  0  0  1  0  0  0  0  0  0  0  0
    6.2090   -3.9544    0.7742 H   0  0  0  1  0  0  0  0  0  0  0  0
    5.8134   -3.9690    2.4764 H   0  0  0  1  0  0  0  0  0  0  0  0
   -2.9353   -5.5699    3.7307 H   0  0  0  1  0  0  0  0  0  0  0  0
   -1.6348   -5.4903    2.5661 H   0  0  0  1  0  0  0  0  0  0  0  0
   -2.5361   -7.6247    2.3925 H   0  0  0  1  0  0  0  0  0  0  0  0
   -3.1030   -6.7379    0.9973 H   0  0  0  1  0  0  0  0  0  0  0  0
  1 34  1  0  0  0  0
  2  4  1  0  0  0  0
  3  4  1  0  0  0  0
  4  5  1  0  0  0  0
  4 32  1  0  0  0  0
  6 10  1  0  0  0  0
  6 26  1  0  0  0  0
  6 42  1  0  0  0  0
  7  8  1  0  0  0  0
  7  9  2  0  0  0  0
  7 13  1  0  0  0  0
  8 43  1  0  0  0  0
  8 44  1  0  0  0  0
  8 45  1  0  0  0  0
 10 46  1  0  0  0  0
 10 47  1  0  0  0  0
 10 48  1  0  0  0  0
 11 27  1  0  0  0  0
 11 49  1  0  0  0  0
 12 26  2  0  0  0  0
 13 23  1  0  0  0  0
 13 50  1  0  0  0  0
 14 41  1  0  0  0  0
 15 24  1  0  0  0  0
 15 32  4  0  0  0  0
 15 34  4  0  0  0  0
 16 41  2  0  0  0  0
 17 18  1  0  0  0  0
 17 20  1  0  0  0  0
 17 51  1  0  0  0  0
 17 52  1  0  0  0  0
 18 23  1  0  0  0  0
 18 53  1  0  0  0  0
 18 54  1  0  0  0  0
 19 21  4  0  0  0  0
 19 29  1  0  0  0  0
 19 32  4  0  0  0  0
 20 24  1  0  0  0  0
 20 55  1  0  0  0  0
 20 56  1  0  0  0  0
 21 25  1  0  0  0  0
 21 34  4  0  0  0  0
 22 27  1  0  0  0  0
 22 28  1  0  0  0  0
 22 57  1  0  0  0  0
 22 58  1  0  0  0  0
 23 26  1  0  0  0  0
 23 59  1  0  0  0  0
 24 60  1  0  0  0  0
 24 61  1  0  0  0  0
 25 35  1  0  0  0  0
 25 62  1  0  0  0  0
 25 63  1  0  0  0  0
 27 31  1  0  0  0  0
 27 64  1  0  0  0  0
 28 30  1  0  0  0  0
 28 65  1  0  0  0  0
 28 66  1  0  0  0  0
 29 31  2  0  0  0  0
 29 67  1  0  0  0  0
 30 33  1  0  0  0  0
 30 68  1  0  0  0  0
 30 69  1  0  0  0  0
 31 70  1  0  0  0  0
 33 38  1  0  0  0  0
 33 71  1  0  0  0  0
 33 72  1  0  0  0  0
 35 36  2  0  0  0  0
 35 73  1  0  0  0  0
 36 37  1  0  0  0  0
 36 74  1  0  0  0  0
 37 39  1  0  0  0  0
 37 75  1  0  0  0  0
 37 76  1  0  0  0  0
 38 77  1  0  0  0  0
 38 78  1  0  0  0  0
 38 79  1  0  0  0  0
 39 40  1  0  0  0  0
 39 80  1  0  0  0  0
 39 81  1  0  0  0  0
 40 41  1  0  0  0  0
 40 82  1  0  0  0  0
 40 83  1  0  0  0  0
M  END
> <ConfClashScore>
0 

> <ConfOneFourInteractionScore>
-0.985099 

> <ConfScore>
-0.104077 

> <ConfScorePBest>
0.00689397 

> <ConfTolerance>
1.78968 

$$$$
9548876
  PyMOL2.2          3D                             0

 83 83  0  0  0  0  0  0  0  0999 V2000
   -5.0287   -1.0257   -0.0510 H   0  0  0  1  0  0  0  0  0  0  0  0
   -3.5380    3.5185   -1.0644 H   0  0  0  1  0  0  0  0  0  0  0  0
   -2.1692    3.4871    0.0208 H   0  0  0  1  0  0  0  0  0  0  0  0
   -3.1848    3.1782   -0.1135 C   0  0  0  1  0  0  0  0  0  0  0  0
   -3.7910    3.5968    0.6625 H   0  0  0  1  0  0  0  0  0  0  0  0
  -10.8838    2.6692    3.1754 N   0  0  0  1  0  0  0  0  0  0  0  0
  -10.2250    5.0346   -0.8497 C   0  0  0  1  0  0  0  0  0  0  0  0
  -10.0313    6.4500   -1.3787 C   0  0  0  1  0  0  0  0  0  0  0  0
  -10.6457    4.1298   -1.5686 O   0  0  0  1  0  0  0  0  0  0  0  0
  -11.5180    2.7282    4.4838 C   0  0  0  1  0  0  0  0  0  0  0  0
    1.2052    3.8932    0.6799 O   0  0  0  1  0  0  0  0  0  0  0  0
  -11.3697    4.8178    2.6913 O   0  0  0  1  0  0  0  0  0  0  0  0
   -9.8962    4.8925    0.4433 N   0  0  0  1  0  0  0  0  0  0  0  0
   -0.3044   -5.2947   -5.5580 O   0  5  0  1  0  0  0  0  0  0  0  0
   -4.4565    1.0528   -0.2085 N   0  0  0  1  0  0  0  0  0  0  0  0
   -0.5402   -3.0693   -5.9658 O   0  0  0  1  0  0  0  0  0  0  0  0
   -7.7635    2.8505    0.2816 C   0  0  0  1  0  0  0  0  0  0  0  0
   -8.6034    3.1143    1.5218 C   0  0  0  1  0  0  0  0  0  0  0  0
   -2.3055    0.7347    0.2524 C   0  0  0  1  0  0  0  0  0  0  0  0
   -6.4258    2.1969    0.5876 C   0  0  0  1  0  0  0  0  0  0  0  0
   -2.9532   -0.5087    0.2880 C   0  0  0  1  0  0  0  0  0  0  0  0
    1.2278    2.5723    2.7052 C   0  0  0  1  0  0  0  0  0  0  0  0
  -10.0003    3.6180    1.1357 C   0  0  0  1  0  0  0  0  0  0  0  0
   -5.6832    1.7489   -0.6460 C   0  0  0  1  0  0  0  0  0  0  0  0
   -2.3077   -1.8410    0.5879 C   0  0  0  1  0  0  0  0  0  0  0  0
  -10.8436    3.7563    2.3997 C   0  0  0  1  0  0  0  0  0  0  0  0
    0.9618    2.5948    1.1919 C   0  0  0  1  0  0  0  0  0  0  0  0
    1.0314    1.2575    3.4350 C   0  0  0  1  0  0  0  0  0  0  0  0
   -0.9056    1.0723    0.4797 C   0  0  0  1  0  0  0  0  0  0  0  0
    1.3048    1.3499    4.9266 C   0  0  0  1  0  0  0  0  0  0  0  0
   -0.4652    2.1974    0.9846 C   0  0  0  1  0  0  0  0  0  0  0  0
   -3.2629    1.6913   -0.0568 C   0  0  0  1  0  0  0  0  0  0  0  0
    1.0918    0.0030    5.5978 C   0  0  0  1  0  0  0  0  0  0  0  0
   -4.2875   -0.2979   -0.0004 C   0  0  0  1  0  0  0  0  0  0  0  0
   -3.1244   -2.9905    0.0891 C   0  0  0  1  0  0  0  0  0  0  0  0
   -2.6805   -3.9392   -0.7005 C   0  0  0  1  0  0  0  0  0  0  0  0
   -1.3918   -3.8350   -1.4715 C   0  0  0  1  0  0  0  0  0  0  0  0
    1.2401    0.0530    7.1098 C   0  0  0  1  0  0  0  0  0  0  0  0
   -1.5785   -4.0138   -2.9725 C   0  0  0  1  0  0  0  0  0  0  0  0
   -0.2586   -3.8346   -3.7047 C   0  0  0  1  0  0  0  0  0  0  0  0
   -0.3844   -3.9904   -5.1812 C   0  0  0  1  0  0  0  0  0  0  0  0
  -10.4853    1.8303    2.8625 H   0  0  0  1  0  0  0  0  0  0  0  0
   -9.0351    6.5578   -1.7540 H   0  0  0  1  0  0  0  0  0  0  0  0
  -10.1918    7.1515   -0.5868 H   0  0  0  1  0  0  0  0  0  0  0  0
  -10.7310    6.6348   -2.1668 H   0  0  0  1  0  0  0  0  0  0  0  0
  -12.4775    3.1934    4.3950 H   0  0  0  1  0  0  0  0  0  0  0  0
  -10.9060    3.2983    5.1512 H   0  0  0  1  0  0  0  0  0  0  0  0
  -11.6368    1.7364    4.8674 H   0  0  0  1  0  0  0  0  0  0  0  0
    1.4502    3.8317   -0.2463 H   0  0  0  1  0  0  0  0  0  0  0  0
   -9.5747    5.6748    0.9383 H   0  0  0  1  0  0  0  0  0  0  0  0
   -7.5809    3.7835   -0.2093 H   0  0  0  1  0  0  0  0  0  0  0  0
   -8.3148    2.2057   -0.3706 H   0  0  0  1  0  0  0  0  0  0  0  0
   -8.1178    3.8538    2.1237 H   0  0  0  1  0  0  0  0  0  0  0  0
   -8.6997    2.2065    2.0800 H   0  0  0  1  0  0  0  0  0  0  0  0
   -6.5996    1.3426    1.2079 H   0  0  0  1  0  0  0  0  0  0  0  0
   -5.8161    2.9019    1.1132 H   0  0  0  1  0  0  0  0  0  0  0  0
    0.5730    3.2888    3.1555 H   0  0  0  1  0  0  0  0  0  0  0  0
    2.2437    2.8728    2.8556 H   0  0  0  1  0  0  0  0  0  0  0  0
  -10.4590    2.8952    0.4938 H   0  0  0  1  0  0  0  0  0  0  0  0
   -6.2955    1.0825   -1.2170 H   0  0  0  1  0  0  0  0  0  0  0  0
   -5.4258    2.5981   -1.2439 H   0  0  0  1  0  0  0  0  0  0  0  0
   -2.1903   -1.9360    1.6472 H   0  0  0  1  0  0  0  0  0  0  0  0
   -1.3469   -1.8716    0.1179 H   0  0  0  1  0  0  0  0  0  0  0  0
    1.5983    1.8776    0.7170 H   0  0  0  1  0  0  0  0  0  0  0  0
    1.6954    0.5326    3.0127 H   0  0  0  1  0  0  0  0  0  0  0  0
    0.0194    0.9395    3.2947 H   0  0  0  1  0  0  0  0  0  0  0  0
   -0.1959    0.3584    0.2184 H   0  0  0  1  0  0  0  0  0  0  0  0
    0.6407    2.0675    5.3612 H   0  0  0  1  0  0  0  0  0  0  0  0
    2.3170    1.6618    5.0790 H   0  0  0  1  0  0  0  0  0  0  0  0
   -1.1858    2.8897    1.2729 H   0  0  0  1  0  0  0  0  0  0  0  0
    1.8110   -0.6874    5.2091 H   0  0  0  1  0  0  0  0  0  0  0  0
    0.1054   -0.3400    5.3649 H   0  0  0  1  0  0  0  0  0  0  0  0
   -4.1184   -3.0414    0.3909 H   0  0  0  1  0  0  0  0  0  0  0  0
   -3.2467   -4.8060   -0.7987 H   0  0  0  1  0  0  0  0  0  0  0  0
   -0.7221   -4.5914   -1.1192 H   0  0  0  1  0  0  0  0  0  0  0  0
   -0.9658   -2.8697   -1.2939 H   0  0  0  1  0  0  0  0  0  0  0  0
    1.0537   -0.9178    7.5193 H   0  0  0  1  0  0  0  0  0  0  0  0
    0.5372    0.7512    7.5139 H   0  0  0  1  0  0  0  0  0  0  0  0
    2.2337    0.3608    7.3604 H   0  0  0  1  0  0  0  0  0  0  0  0
   -2.2785   -3.2868   -3.3281 H   0  0  0  1  0  0  0  0  0  0  0  0
   -1.9557   -4.9966   -3.1646 H   0  0  0  1  0  0  0  0  0  0  0  0
    0.4336   -4.5659   -3.3429 H   0  0  0  1  0  0  0  0  0  0  0  0
    0.1160   -2.8543   -3.4964 H   0  0  0  1  0  0  0  0  0  0  0  0
  1 34  1  0  0  0  0
  2  4  1  0  0  0  0
  3  4  1  0  0  0  0
  4  5  1  0  0  0  0
  4 32  1  0  0  0  0
  6 10  1  0  0  0  0
  6 26  1  0  0  0  0
  6 42  1  0  0  0  0
  7  8  1  0  0  0  0
  7  9  2  0  0  0  0
  7 13  1  0  0  0  0
  8 43  1  0  0  0  0
  8 44  1  0  0  0  0
  8 45  1  0  0  0  0
 10 46  1  0  0  0  0
 10 47  1  0  0  0  0
 10 48  1  0  0  0  0
 11 27  1  0  0  0  0
 11 49  1  0  0  0  0
 12 26  2  0  0  0  0
 13 23  1  0  0  0  0
 13 50  1  0  0  0  0
 14 41  1  0  0  0  0
 15 24  1  0  0  0  0
 15 32  4  0  0  0  0
 15 34  4  0  0  0  0
 16 41  2  0  0  0  0
 17 18  1  0  0  0  0
 17 20  1  0  0  0  0
 17 51  1  0  0  0  0
 17 52  1  0  0  0  0
 18 23  1  0  0  0  0
 18 53  1  0  0  0  0
 18 54  1  0  0  0  0
 19 21  4  0  0  0  0
 19 29  1  0  0  0  0
 19 32  4  0  0  0  0
 20 24  1  0  0  0  0
 20 55  1  0  0  0  0
 20 56  1  0  0  0  0
 21 25  1  0  0  0  0
 21 34  4  0  0  0  0
 22 27  1  0  0  0  0
 22 28  1  0  0  0  0
 22 57  1  0  0  0  0
 22 58  1  0  0  0  0
 23 26  1  0  0  0  0
 23 59  1  0  0  0  0
 24 60  1  0  0  0  0
 24 61  1  0  0  0  0
 25 35  1  0  0  0  0
 25 62  1  0  0  0  0
 25 63  1  0  0  0  0
 27 31  1  0  0  0  0
 27 64  1  0  0  0  0
 28 30  1  0  0  0  0
 28 65  1  0  0  0  0
 28 66  1  0  0  0  0
 29 31  2  0  0  0  0
 29 67  1  0  0  0  0
 30 33  1  0  0  0  0
 30 68  1  0  0  0  0
 30 69  1  0  0  0  0
 31 70  1  0  0  0  0
 33 38  1  0  0  0  0
 33 71  1  0  0  0  0
 33 72  1  0  0  0  0
 35 36  2  0  0  0  0
 35 73  1  0  0  0  0
 36 37  1  0  0  0  0
 36 74  1  0  0  0  0
 37 39  1  0  0  0  0
 37 75  1  0  0  0  0
 37 76  1  0  0  0  0
 38 77  1  0  0  0  0
 38 78  1  0  0  0  0
 38 79  1  0  0  0  0
 39 40  1  0  0  0  0
 39 80  1  0  0  0  0
 39 81  1  0  0  0  0
 40 41  1  0  0  0  0
 40 82  1  0  0  0  0
 40 83  1  0  0  0  0
M  END
> <ConfClashScore>
0 

> <ConfOneFourInteractionScore>
-0.994107 

> <ConfScore>
-0.0989903 

> <ConfScorePBest>
0.00686549 

> <ConfTolerance>
1.70262 

$$$$
9548876
  PyMOL2.2          3D                             0

 83 83  0  0  0  0  0  0  0  0999 V2000
   -5.0048   -1.0192   -0.1103 H   0  0  0  1  0  0  0  0  0  0  0  0
   -3.4921    3.4362   -1.1434 H   0  0  0  1  0  0  0  0  0  0  0  0
   -2.1696    3.5060   -0.0039 H   0  0  0  1  0  0  0  0  0  0  0  0
   -3.1810    3.1887   -0.1500 C   0  0  0  1  0  0  0  0  0  0  0  0
   -3.8158    3.6825    0.5557 H   0  0  0  1  0  0  0  0  0  0  0  0
   -9.3622    4.3326   -3.3966 N   0  0  0  1  0  0  0  0  0  0  0  0
  -10.3641    0.1832   -5.3896 C   0  0  0  1  0  0  0  0  0  0  0  0
  -10.7452   -0.3709   -6.7485 C   0  0  0  1  0  0  0  0  0  0  0  0
  -10.6119   -0.4354   -4.3554 O   0  0  0  1  0  0  0  0  0  0  0  0
   -9.0221    5.7476   -3.4004 C   0  0  0  1  0  0  0  0  0  0  0  0
    1.9859    2.5898   -0.3013 O   0  0  0  1  0  0  0  0  0  0  0  0
   -8.5932    3.9145   -5.4752 O   0  0  0  1  0  0  0  0  0  0  0  0
   -9.7481    1.3759   -5.3980 N   0  0  0  1  0  0  0  0  0  0  0  0
    5.4898   -2.7404    1.2581 O   0  5  0  1  0  0  0  0  0  0  0  0
   -4.4563    1.0713   -0.1515 N   0  0  0  1  0  0  0  0  0  0  0  0
    4.7099   -3.7643   -0.6176 O   0  0  0  1  0  0  0  0  0  0  0  0
   -7.5170    1.8981   -2.3344 C   0  0  0  1  0  0  0  0  0  0  0  0
   -8.0422    1.4071   -3.6402 C   0  0  0  1  0  0  0  0  0  0  0  0
   -2.3066    0.7541    0.3159 C   0  0  0  1  0  0  0  0  0  0  0  0
   -6.2789    1.1523   -1.8641 C   0  0  0  1  0  0  0  0  0  0  0  0
   -2.9395   -0.4969    0.2786 C   0  0  0  1  0  0  0  0  0  0  0  0
    0.9965    3.9607    1.3873 C   0  0  0  1  0  0  0  0  0  0  0  0
   -9.3316    2.0445   -4.1743 C   0  0  0  1  0  0  0  0  0  0  0  0
   -5.7241    1.6754   -0.5623 C   0  0  0  1  0  0  0  0  0  0  0  0
   -2.3361   -1.8629    0.5057 C   0  0  0  1  0  0  0  0  0  0  0  0
   -9.0826    3.5286   -4.4264 C   0  0  0  1  0  0  0  0  0  0  0  0
    1.0589    2.5665    0.7681 C   0  0  0  1  0  0  0  0  0  0  0  0
    1.7928    4.0839    2.6752 C   0  0  0  1  0  0  0  0  0  0  0  0
   -0.9028    1.0439    0.5823 C   0  0  0  1  0  0  0  0  0  0  0  0
    1.6690    5.4460    3.3307 C   0  0  0  1  0  0  0  0  0  0  0  0
   -0.2685    2.1365    0.2295 C   0  0  0  1  0  0  0  0  0  0  0  0
   -3.2721    1.7146    0.0470 C   0  0  0  1  0  0  0  0  0  0  0  0
    2.4372    5.5574    4.6418 C   0  0  0  1  0  0  0  0  0  0  0  0
   -4.2731   -0.2865   -0.0131 C   0  0  0  1  0  0  0  0  0  0  0  0
   -1.6302   -2.4963   -0.6509 C   0  0  0  1  0  0  0  0  0  0  0  0
   -0.3465   -2.7708   -0.7426 C   0  0  0  1  0  0  0  0  0  0  0  0
    0.7509   -2.2508    0.1306 C   0  0  0  1  0  0  0  0  0  0  0  0
    2.5208    7.0056    5.0959 C   0  0  0  1  0  0  0  0  0  0  0  0
    2.1333   -2.6860   -0.3277 C   0  0  0  1  0  0  0  0  0  0  0  0
    3.2229   -2.4059    0.6944 C   0  0  0  1  0  0  0  0  0  0  0  0
    4.5231   -3.0483    0.3524 C   0  0  0  1  0  0  0  0  0  0  0  0
   -9.8119    3.9563   -2.6114 H   0  0  0  1  0  0  0  0  0  0  0  0
  -11.1202   -1.3667   -6.6358 H   0  0  0  1  0  0  0  0  0  0  0  0
   -9.8834   -0.3842   -7.3825 H   0  0  0  1  0  0  0  0  0  0  0  0
  -11.5011    0.2471   -7.1862 H   0  0  0  1  0  0  0  0  0  0  0  0
   -9.4350    6.2118   -4.2716 H   0  0  0  1  0  0  0  0  0  0  0  0
   -7.9579    5.8583   -3.4080 H   0  0  0  1  0  0  0  0  0  0  0  0
   -9.4235    6.2129   -2.5245 H   0  0  0  1  0  0  0  0  0  0  0  0
    1.7035    3.2323   -0.9563 H   0  0  0  1  0  0  0  0  0  0  0  0
   -9.5727    1.8116   -6.2582 H   0  0  0  1  0  0  0  0  0  0  0  0
   -8.2829    1.7836   -1.5960 H   0  0  0  1  0  0  0  0  0  0  0  0
   -7.2708    2.9344   -2.4358 H   0  0  0  1  0  0  0  0  0  0  0  0
   -8.2231    0.3575   -3.5376 H   0  0  0  1  0  0  0  0  0  0  0  0
   -7.2789    1.5681   -4.3725 H   0  0  0  1  0  0  0  0  0  0  0  0
   -5.5226    1.2424   -2.6157 H   0  0  0  1  0  0  0  0  0  0  0  0
   -6.5328    0.1210   -1.7346 H   0  0  0  1  0  0  0  0  0  0  0  0
   -0.0267    4.1930    1.5976 H   0  0  0  1  0  0  0  0  0  0  0  0
    1.3843    4.6638    0.6801 H   0  0  0  1  0  0  0  0  0  0  0  0
  -10.0953    1.9453   -3.4315 H   0  0  0  1  0  0  0  0  0  0  0  0
   -5.5733    2.7298   -0.6640 H   0  0  0  1  0  0  0  0  0  0  0  0
   -6.4457    1.4903    0.2058 H   0  0  0  1  0  0  0  0  0  0  0  0
   -3.1278   -2.5201    0.7993 H   0  0  0  1  0  0  0  0  0  0  0  0
   -1.6302   -1.7746    1.3049 H   0  0  0  1  0  0  0  0  0  0  0  0
    1.3720    1.8697    1.5173 H   0  0  0  1  0  0  0  0  0  0  0  0
    2.8246    3.9062    2.4544 H   0  0  0  1  0  0  0  0  0  0  0  0
    1.4420    3.3433    3.3631 H   0  0  0  1  0  0  0  0  0  0  0  0
   -0.3576    0.3225    1.0961 H   0  0  0  1  0  0  0  0  0  0  0  0
    0.6343    5.6354    3.5266 H   0  0  0  1  0  0  0  0  0  0  0  0
    2.0452    6.1839    2.6533 H   0  0  0  1  0  0  0  0  0  0  0  0
   -0.7225    2.7494   -0.4775 H   0  0  0  1  0  0  0  0  0  0  0  0
    3.4270    5.1758    4.5020 H   0  0  0  1  0  0  0  0  0  0  0  0
    1.9356    4.9828    5.3922 H   0  0  0  1  0  0  0  0  0  0  0  0
   -2.2177   -2.7471   -1.4717 H   0  0  0  1  0  0  0  0  0  0  0  0
   -0.0645   -3.4196   -1.5049 H   0  0  0  1  0  0  0  0  0  0  0  0
    0.5933   -2.6101    1.1261 H   0  0  0  1  0  0  0  0  0  0  0  0
    0.7117   -1.1815    0.1265 H   0  0  0  1  0  0  0  0  0  0  0  0
    1.5363    7.4219    5.1448 H   0  0  0  1  0  0  0  0  0  0  0  0
    3.1098    7.5642    4.3988 H   0  0  0  1  0  0  0  0  0  0  0  0
    2.9750    7.0500    6.0636 H   0  0  0  1  0  0  0  0  0  0  0  0
    2.3719   -2.1627   -1.2300 H   0  0  0  1  0  0  0  0  0  0  0  0
    2.1112   -3.7383   -0.5203 H   0  0  0  1  0  0  0  0  0  0  0  0
    2.9005   -2.7749    1.6456 H   0  0  0  1  0  0  0  0  0  0  0  0
    3.3709   -1.3478    0.7532 H   0  0  0  1  0  0  0  0  0  0  0  0
  1 34  1  0  0  0  0
  2  4  1  0  0  0  0
  3  4  1  0  0  0  0
  4  5  1  0  0  0  0
  4 32  1  0  0  0  0
  6 10  1  0  0  0  0
  6 26  1  0  0  0  0
  6 42  1  0  0  0  0
  7  8  1  0  0  0  0
  7  9  2  0  0  0  0
  7 13  1  0  0  0  0
  8 43  1  0  0  0  0
  8 44  1  0  0  0  0
  8 45  1  0  0  0  0
 10 46  1  0  0  0  0
 10 47  1  0  0  0  0
 10 48  1  0  0  0  0
 11 27  1  0  0  0  0
 11 49  1  0  0  0  0
 12 26  2  0  0  0  0
 13 23  1  0  0  0  0
 13 50  1  0  0  0  0
 14 41  1  0  0  0  0
 15 24  1  0  0  0  0
 15 32  4  0  0  0  0
 15 34  4  0  0  0  0
 16 41  2  0  0  0  0
 17 18  1  0  0  0  0
 17 20  1  0  0  0  0
 17 51  1  0  0  0  0
 17 52  1  0  0  0  0
 18 23  1  0  0  0  0
 18 53  1  0  0  0  0
 18 54  1  0  0  0  0
 19 21  4  0  0  0  0
 19 29  1  0  0  0  0
 19 32  4  0  0  0  0
 20 24  1  0  0  0  0
 20 55  1  0  0  0  0
 20 56  1  0  0  0  0
 21 25  1  0  0  0  0
 21 34  4  0  0  0  0
 22 27  1  0  0  0  0
 22 28  1  0  0  0  0
 22 57  1  0  0  0  0
 22 58  1  0  0  0  0
 23 26  1  0  0  0  0
 23 59  1  0  0  0  0
 24 60  1  0  0  0  0
 24 61  1  0  0  0  0
 25 35  1  0  0  0  0
 25 62  1  0  0  0  0
 25 63  1  0  0  0  0
 27 31  1  0  0  0  0
 27 64  1  0  0  0  0
 28 30  1  0  0  0  0
 28 65  1  0  0  0  0
 28 66  1  0  0  0  0
 29 31  2  0  0  0  0
 29 67  1  0  0  0  0
 30 33  1  0  0  0  0
 30 68  1  0  0  0  0
 30 69  1  0  0  0  0
 31 70  1  0  0  0  0
 33 38  1  0  0  0  0
 33 71  1  0  0  0  0
 33 72  1  0  0  0  0
 35 36  2  0  0  0  0
 35 73  1  0  0  0  0
 36 37  1  0  0  0  0
 36 74  1  0  0  0  0
 37 39  1  0  0  0  0
 37 75  1  0  0  0  0
 37 76  1  0  0  0  0
 38 77  1  0  0  0  0
 38 78  1  0  0  0  0
 38 79  1  0  0  0  0
 39 40  1  0  0  0  0
 39 80  1  0  0  0  0
 39 81  1  0  0  0  0
 40 41  1  0  0  0  0
 40 82  1  0  0  0  0
 40 83  1  0  0  0  0
M  END
> <ConfClashScore>
0 

> <ConfOneFourInteractionScore>
-0.987512 

> <ConfScore>
-0.0982002 

> <ConfScorePBest>
0.00683701 

> <ConfTolerance>
1.48697 

$$$$
9548876
  PyMOL2.2          3D                             0

 83 83  0  0  0  0  0  0  0  0999 V2000
   -5.0157   -1.0387   -0.0840 H   0  0  0  1  0  0  0  0  0  0  0  0
   -2.3626    3.5072    0.5001 H   0  0  0  1  0  0  0  0  0  0  0  0
   -4.0848    3.6197    0.2284 H   0  0  0  1  0  0  0  0  0  0  0  0
   -3.1724    3.1822   -0.1192 C   0  0  0  1  0  0  0  0  0  0  0  0
   -2.9927    3.4860   -1.1293 H   0  0  0  1  0  0  0  0  0  0  0  0
  -12.0862    1.6742    0.0396 N   0  0  0  1  0  0  0  0  0  0  0  0
  -12.5302    3.9387    1.7302 C   0  0  0  1  0  0  0  0  0  0  0  0
  -13.4226    4.0414    2.9518 C   0  0  0  1  0  0  0  0  0  0  0  0
  -12.8999    4.3738    0.6404 O   0  0  0  1  0  0  0  0  0  0  0  0
  -12.8539    0.8714   -0.9006 C   0  0  0  1  0  0  0  0  0  0  0  0
    1.6322    1.7952    1.5579 O   0  0  0  1  0  0  0  0  0  0  0  0
  -10.6446    2.4921   -1.5024 O   0  0  0  1  0  0  0  0  0  0  0  0
  -11.3276    3.3599    1.8740 N   0  0  0  1  0  0  0  0  0  0  0  0
    2.9975   -4.1548   -2.1049 O   0  5  0  1  0  0  0  0  0  0  0  0
   -4.4641    1.0463   -0.2286 N   0  0  0  1  0  0  0  0  0  0  0  0
    1.0954   -3.0612   -1.4569 O   0  0  0  1  0  0  0  0  0  0  0  0
   -8.0755    2.3659    0.0590 C   0  0  0  1  0  0  0  0  0  0  0  0
   -9.0441    2.6310    1.1848 C   0  0  0  1  0  0  0  0  0  0  0  0
   -2.3161    0.7502    0.2604 C   0  0  0  1  0  0  0  0  0  0  0  0
   -6.7040    1.9146    0.5372 C   0  0  0  1  0  0  0  0  0  0  0  0
   -2.9507   -0.5003    0.2841 C   0  0  0  1  0  0  0  0  0  0  0  0
    1.8374    3.1786   -0.3758 C   0  0  0  1  0  0  0  0  0  0  0  0
  -10.3890    3.2325    0.7692 C   0  0  0  1  0  0  0  0  0  0  0  0
   -5.7339    1.6843   -0.5772 C   0  0  0  1  0  0  0  0  0  0  0  0
   -2.2949   -1.8262    0.5894 C   0  0  0  1  0  0  0  0  0  0  0  0
  -11.0363    2.4082   -0.3397 C   0  0  0  1  0  0  0  0  0  0  0  0
    0.9329    2.7717    0.7922 C   0  0  0  1  0  0  0  0  0  0  0  0
    3.2051    3.6715    0.0649 C   0  0  0  1  0  0  0  0  0  0  0  0
   -0.9231    1.1023    0.5073 C   0  0  0  1  0  0  0  0  0  0  0  0
    4.0868    4.1143   -1.0903 C   0  0  0  1  0  0  0  0  0  0  0  0
   -0.3810    2.2725    0.2805 C   0  0  0  1  0  0  0  0  0  0  0  0
   -3.2795    1.6973   -0.0592 C   0  0  0  1  0  0  0  0  0  0  0  0
    5.5182    4.4135   -0.6756 C   0  0  0  1  0  0  0  0  0  0  0  0
   -4.2833   -0.3030   -0.0216 C   0  0  0  1  0  0  0  0  0  0  0  0
   -1.7573   -2.5445   -0.6074 C   0  0  0  1  0  0  0  0  0  0  0  0
   -1.2531   -3.7526   -0.6420 C   0  0  0  1  0  0  0  0  0  0  0  0
   -0.8085   -4.5839    0.5315 C   0  0  0  1  0  0  0  0  0  0  0  0
    6.3977    4.8664   -1.8296 C   0  0  0  1  0  0  0  0  0  0  0  0
    0.6661   -4.6685    0.7325 C   0  0  0  1  0  0  0  0  0  0  0  0
    1.5154   -5.1233   -0.4471 C   0  0  0  1  0  0  0  0  0  0  0  0
    1.8518   -4.0158   -1.3855 C   0  0  0  1  0  0  0  0  0  0  0  0
  -12.3486    1.6766    0.9839 H   0  0  0  1  0  0  0  0  0  0  0  0
  -12.9810    4.7092    3.6616 H   0  0  0  1  0  0  0  0  0  0  0  0
  -13.5339    3.0735    3.3943 H   0  0  0  1  0  0  0  0  0  0  0  0
  -14.3828    4.4139    2.6615 H   0  0  0  1  0  0  0  0  0  0  0  0
  -12.4397    0.9768   -1.8815 H   0  0  0  1  0  0  0  0  0  0  0  0
  -13.8710    1.2038   -0.9056 H   0  0  0  1  0  0  0  0  0  0  0  0
  -12.8155   -0.1565   -0.6059 H   0  0  0  1  0  0  0  0  0  0  0  0
    1.5288    1.9868    2.4928 H   0  0  0  1  0  0  0  0  0  0  0  0
  -11.0728    3.0109    2.7537 H   0  0  0  1  0  0  0  0  0  0  0  0
   -7.9582    3.2666   -0.5067 H   0  0  0  1  0  0  0  0  0  0  0  0
   -8.4849    1.6013   -0.5677 H   0  0  0  1  0  0  0  0  0  0  0  0
   -8.5771    3.3089    1.8685 H   0  0  0  1  0  0  0  0  0  0  0  0
   -9.2373    1.7018    1.6790 H   0  0  0  1  0  0  0  0  0  0  0  0
   -6.8184    1.0007    1.0817 H   0  0  0  1  0  0  0  0  0  0  0  0
   -6.3053    2.6682    1.1838 H   0  0  0  1  0  0  0  0  0  0  0  0
    1.3544    3.9617   -0.9221 H   0  0  0  1  0  0  0  0  0  0  0  0
    1.9719    2.3293   -1.0126 H   0  0  0  1  0  0  0  0  0  0  0  0
  -10.1965    4.2084    0.3750 H   0  0  0  1  0  0  0  0  0  0  0  0
   -6.2176    1.0656   -1.3039 H   0  0  0  1  0  0  0  0  0  0  0  0
   -5.5088    2.6360   -1.0114 H   0  0  0  1  0  0  0  0  0  0  0  0
   -3.0204   -2.4570    1.0592 H   0  0  0  1  0  0  0  0  0  0  0  0
   -1.4841   -1.6498    1.2649 H   0  0  0  1  0  0  0  0  0  0  0  0
    0.7534    3.6385    1.3933 H   0  0  0  1  0  0  0  0  0  0  0  0
    3.7003    2.8782    0.5849 H   0  0  0  1  0  0  0  0  0  0  0  0
    3.0696    4.5019    0.7259 H   0  0  0  1  0  0  0  0  0  0  0  0
   -0.3071    0.3605    0.8971 H   0  0  0  1  0  0  0  0  0  0  0  0
    3.6655    4.9997   -1.5186 H   0  0  0  1  0  0  0  0  0  0  0  0
    4.1018    3.3352   -1.8236 H   0  0  0  1  0  0  0  0  0  0  0  0
   -0.9227    2.9257   -0.3208 H   0  0  0  1  0  0  0  0  0  0  0  0
    5.9419    3.5259   -0.2542 H   0  0  0  1  0  0  0  0  0  0  0  0
    5.5026    5.1874    0.0631 H   0  0  0  1  0  0  0  0  0  0  0  0
   -1.7871   -2.0286   -1.5099 H   0  0  0  1  0  0  0  0  0  0  0  0
   -1.1486   -4.1845   -1.5823 H   0  0  0  1  0  0  0  0  0  0  0  0
   -1.1801   -5.5775    0.3918 H   0  0  0  1  0  0  0  0  0  0  0  0
   -1.2386   -4.1628    1.4162 H   0  0  0  1  0  0  0  0  0  0  0  0
    6.6645    5.8936   -1.6936 H   0  0  0  1  0  0  0  0  0  0  0  0
    5.8631    4.7559   -2.7499 H   0  0  0  1  0  0  0  0  0  0  0  0
    7.2846    4.2685   -1.8577 H   0  0  0  1  0  0  0  0  0  0  0  0
    0.8404   -5.3543    1.5351 H   0  0  0  1  0  0  0  0  0  0  0  0
    1.0066   -3.6942    1.0148 H   0  0  0  1  0  0  0  0  0  0  0  0
    0.9760   -5.8741   -0.9858 H   0  0  0  1  0  0  0  0  0  0  0  0
    2.4266   -5.5390   -0.0705 H   0  0  0  1  0  0  0  0  0  0  0  0
  1 34  1  0  0  0  0
  2  4  1  0  0  0  0
  3  4  1  0  0  0  0
  4  5  1  0  0  0  0
  4 32  1  0  0  0  0
  6 10  1  0  0  0  0
  6 26  1  0  0  0  0
  6 42  1  0  0  0  0
  7  8  1  0  0  0  0
  7  9  2  0  0  0  0
  7 13  1  0  0  0  0
  8 43  1  0  0  0  0
  8 44  1  0  0  0  0
  8 45  1  0  0  0  0
 10 46  1  0  0  0  0
 10 47  1  0  0  0  0
 10 48  1  0  0  0  0
 11 27  1  0  0  0  0
 11 49  1  0  0  0  0
 12 26  2  0  0  0  0
 13 23  1  0  0  0  0
 13 50  1  0  0  0  0
 14 41  1  0  0  0  0
 15 24  1  0  0  0  0
 15 32  4  0  0  0  0
 15 34  4  0  0  0  0
 16 41  2  0  0  0  0
 17 18  1  0  0  0  0
 17 20  1  0  0  0  0
 17 51  1  0  0  0  0
 17 52  1  0  0  0  0
 18 23  1  0  0  0  0
 18 53  1  0  0  0  0
 18 54  1  0  0  0  0
 19 21  4  0  0  0  0
 19 29  1  0  0  0  0
 19 32  4  0  0  0  0
 20 24  1  0  0  0  0
 20 55  1  0  0  0  0
 20 56  1  0  0  0  0
 21 25  1  0  0  0  0
 21 34  4  0  0  0  0
 22 27  1  0  0  0  0
 22 28  1  0  0  0  0
 22 57  1  0  0  0  0
 22 58  1  0  0  0  0
 23 26  1  0  0  0  0
 23 59  1  0  0  0  0
 24 60  1  0  0  0  0
 24 61  1  0  0  0  0
 25 35  1  0  0  0  0
 25 62  1  0  0  0  0
 25 63  1  0  0  0  0
 27 31  1  0  0  0  0
 27 64  1  0  0  0  0
 28 30  1  0  0  0  0
 28 65  1  0  0  0  0
 28 66  1  0  0  0  0
 29 31  2  0  0  0  0
 29 67  1  0  0  0  0
 30 33  1  0  0  0  0
 30 68  1  0  0  0  0
 30 69  1  0  0  0  0
 31 70  1  0  0  0  0
 33 38  1  0  0  0  0
 33 71  1  0  0  0  0
 33 72  1  0  0  0  0
 35 36  2  0  0  0  0
 35 73  1  0  0  0  0
 36 37  1  0  0  0  0
 36 74  1  0  0  0  0
 37 39  1  0  0  0  0
 37 75  1  0  0  0  0
 37 76  1  0  0  0  0
 38 77  1  0  0  0  0
 38 78  1  0  0  0  0
 38 79  1  0  0  0  0
 39 40  1  0  0  0  0
 39 80  1  0  0  0  0
 39 81  1  0  0  0  0
 40 41  1  0  0  0  0
 40 82  1  0  0  0  0
 40 83  1  0  0  0  0
M  END
> <ConfClashScore>
0 

> <ConfOneFourInteractionScore>
-0.982879 

> <ConfScore>
-0.0978873 

> <ConfScorePBest>
0.00680853 

> <ConfTolerance>
1.56832 

$$$$
9548876
  PyMOL2.2          3D                             0

 83 83  0  0  0  0  0  0  0  0999 V2000
   -5.0065   -1.0431   -0.1275 H   0  0  0  1  0  0  0  0  0  0  0  0
   -2.3611    3.5235    0.4848 H   0  0  0  1  0  0  0  0  0  0  0  0
   -4.0814    3.6424    0.2043 H   0  0  0  1  0  0  0  0  0  0  0  0
   -3.1719    3.1860   -0.1264 C   0  0  0  1  0  0  0  0  0  0  0  0
   -2.9867    3.4558   -1.1451 H   0  0  0  1  0  0  0  0  0  0  0  0
   -9.9796    5.5188    3.5824 N   0  0  0  1  0  0  0  0  0  0  0  0
   -9.7183    6.4006    0.1135 C   0  0  0  1  0  0  0  0  0  0  0  0
   -9.1616    7.8152   -0.0814 C   0  0  0  1  0  0  0  0  0  0  0  0
  -10.7496    6.0424   -0.4517 O   0  0  0  1  0  0  0  0  0  0  0  0
  -10.6177    5.8317    4.8524 C   0  0  0  1  0  0  0  0  0  0  0  0
    0.9275    2.8331    2.3550 O   0  0  0  1  0  0  0  0  0  0  0  0
  -11.4278    3.9525    2.8965 O   0  0  0  1  0  0  0  0  0  0  0  0
   -9.0483    5.6431    0.9908 N   0  0  0  1  0  0  0  0  0  0  0  0
   -6.2759   -4.6861    6.0446 O   0  5  0  1  0  0  0  0  0  0  0  0
   -4.4721    1.0499   -0.2069 N   0  0  0  1  0  0  0  0  0  0  0  0
   -6.6720   -5.2373    3.8599 O   0  0  0  1  0  0  0  0  0  0  0  0
   -7.7311    2.9152    0.4711 C   0  0  0  1  0  0  0  0  0  0  0  0
   -8.4191    3.3817    1.7300 C   0  0  0  1  0  0  0  0  0  0  0  0
   -2.3207    0.7559    0.2681 C   0  0  0  1  0  0  0  0  0  0  0  0
   -6.4307    2.1751    0.7343 C   0  0  0  1  0  0  0  0  0  0  0  0
   -2.9451   -0.4998    0.2533 C   0  0  0  1  0  0  0  0  0  0  0  0
    2.0004    1.5251    0.6052 C   0  0  0  1  0  0  0  0  0  0  0  0
   -9.5617    4.3677    1.4679 C   0  0  0  1  0  0  0  0  0  0  0  0
   -5.7478    1.6883   -0.5324 C   0  0  0  1  0  0  0  0  0  0  0  0
   -2.2890   -1.8125    0.6110 C   0  0  0  1  0  0  0  0  0  0  0  0
  -10.3915    4.5748    2.7315 C   0  0  0  1  0  0  0  0  0  0  0  0
    0.9783    2.6148    0.9590 C   0  0  0  1  0  0  0  0  0  0  0  0
    3.4111    1.7607    1.1173 C   0  0  0  1  0  0  0  0  0  0  0  0
   -0.9192    1.0600    0.5302 C   0  0  0  1  0  0  0  0  0  0  0  0
    4.4369    0.8176    0.5121 C   0  0  0  1  0  0  0  0  0  0  0  0
   -0.3556    2.2370    0.3975 C   0  0  0  1  0  0  0  0  0  0  0  0
   -3.2924    1.7047   -0.0193 C   0  0  0  1  0  0  0  0  0  0  0  0
    5.6984    0.7976    1.3391 C   0  0  0  1  0  0  0  0  0  0  0  0
   -4.2799   -0.3038   -0.0433 C   0  0  0  1  0  0  0  0  0  0  0  0
   -1.9343   -1.9570    2.0569 C   0  0  0  1  0  0  0  0  0  0  0  0
   -2.3340   -2.9340    2.8319 C   0  0  0  1  0  0  0  0  0  0  0  0
   -2.9399   -4.2274    2.3463 C   0  0  0  1  0  0  0  0  0  0  0  0
    6.7448   -0.1743    0.8186 C   0  0  0  1  0  0  0  0  0  0  0  0
   -4.3008   -4.3953    2.8735 C   0  0  0  1  0  0  0  0  0  0  0  0
   -4.5268   -4.4770    4.3775 C   0  0  0  1  0  0  0  0  0  0  0  0
   -5.9271   -4.8358    4.7387 C   0  0  0  1  0  0  0  0  0  0  0  0
   -9.1880    6.0398    3.3326 H   0  0  0  1  0  0  0  0  0  0  0  0
   -9.8111    8.5228    0.3902 H   0  0  0  1  0  0  0  0  0  0  0  0
   -9.0976    8.0321   -1.1272 H   0  0  0  1  0  0  0  0  0  0  0  0
   -8.1874    7.8784    0.3567 H   0  0  0  1  0  0  0  0  0  0  0  0
  -11.3546    6.5932    4.7038 H   0  0  0  1  0  0  0  0  0  0  0  0
   -9.8806    6.1795    5.5455 H   0  0  0  1  0  0  0  0  0  0  0  0
  -11.0872    4.9525    5.2415 H   0  0  0  1  0  0  0  0  0  0  0  0
    1.8168    2.9663    2.6911 H   0  0  0  1  0  0  0  0  0  0  0  0
   -8.1820    5.9584    1.3233 H   0  0  0  1  0  0  0  0  0  0  0  0
   -7.5179    3.7703   -0.1358 H   0  0  0  1  0  0  0  0  0  0  0  0
   -8.3938    2.2601   -0.0548 H   0  0  0  1  0  0  0  0  0  0  0  0
   -7.6945    3.8605    2.3551 H   0  0  0  1  0  0  0  0  0  0  0  0
   -8.8177    2.5270    2.2354 H   0  0  0  1  0  0  0  0  0  0  0  0
   -6.6417    1.3280    1.3530 H   0  0  0  1  0  0  0  0  0  0  0  0
   -5.7628    2.8348    1.2477 H   0  0  0  1  0  0  0  0  0  0  0  0
    2.0453    1.4490   -0.4611 H   0  0  0  1  0  0  0  0  0  0  0  0
    1.6513    0.6003    1.0148 H   0  0  0  1  0  0  0  0  0  0  0  0
  -10.1977    3.9456    0.7181 H   0  0  0  1  0  0  0  0  0  0  0  0
   -6.3811    0.9807   -1.0254 H   0  0  0  1  0  0  0  0  0  0  0  0
   -5.5706    2.5212   -1.1804 H   0  0  0  1  0  0  0  0  0  0  0  0
   -1.3911   -1.9043    0.0363 H   0  0  0  1  0  0  0  0  0  0  0  0
   -2.9615   -2.6033    0.3517 H   0  0  0  1  0  0  0  0  0  0  0  0
    1.2899    3.5170    0.4756 H   0  0  0  1  0  0  0  0  0  0  0  0
    3.4132    1.6280    2.1790 H   0  0  0  1  0  0  0  0  0  0  0  0
    3.6939    2.7655    0.8823 H   0  0  0  1  0  0  0  0  0  0  0  0
   -0.3144    0.2766    0.8498 H   0  0  0  1  0  0  0  0  0  0  0  0
    4.6724    1.1447   -0.4792 H   0  0  0  1  0  0  0  0  0  0  0  0
    4.0264   -0.1698    0.4743 H   0  0  0  1  0  0  0  0  0  0  0  0
   -0.8750    2.9616   -0.1381 H   0  0  0  1  0  0  0  0  0  0  0  0
    5.4436    0.5177    2.3399 H   0  0  0  1  0  0  0  0  0  0  0  0
    6.1195    1.7813    1.3395 H   0  0  0  1  0  0  0  0  0  0  0  0
   -1.3247   -1.2272    2.4781 H   0  0  0  1  0  0  0  0  0  0  0  0
   -2.2256   -2.8088    3.8586 H   0  0  0  1  0  0  0  0  0  0  0  0
   -2.3328   -5.0446    2.6757 H   0  0  0  1  0  0  0  0  0  0  0  0
   -2.9765   -4.2180    1.2770 H   0  0  0  1  0  0  0  0  0  0  0  0
    7.6186   -0.1216    1.4339 H   0  0  0  1  0  0  0  0  0  0  0  0
    7.0015    0.0835   -0.1877 H   0  0  0  1  0  0  0  0  0  0  0  0
    6.3510   -1.1689    0.8432 H   0  0  0  1  0  0  0  0  0  0  0  0
   -4.6860   -5.3008    2.4531 H   0  0  0  1  0  0  0  0  0  0  0  0
   -4.8746   -3.5646    2.5190 H   0  0  0  1  0  0  0  0  0  0  0  0
   -4.2971   -3.5250    4.8086 H   0  0  0  1  0  0  0  0  0  0  0  0
   -3.8701   -5.2194    4.7807 H   0  0  0  1  0  0  0  0  0  0  0  0
  1 34  1  0  0  0  0
  2  4  1  0  0  0  0
  3  4  1  0  0  0  0
  4  5  1  0  0  0  0
  4 32  1  0  0  0  0
  6 10  1  0  0  0  0
  6 26  1  0  0  0  0
  6 42  1  0  0  0  0
  7  8  1  0  0  0  0
  7  9  2  0  0  0  0
  7 13  1  0  0  0  0
  8 43  1  0  0  0  0
  8 44  1  0  0  0  0
  8 45  1  0  0  0  0
 10 46  1  0  0  0  0
 10 47  1  0  0  0  0
 10 48  1  0  0  0  0
 11 27  1  0  0  0  0
 11 49  1  0  0  0  0
 12 26  2  0  0  0  0
 13 23  1  0  0  0  0
 13 50  1  0  0  0  0
 14 41  1  0  0  0  0
 15 24  1  0  0  0  0
 15 32  4  0  0  0  0
 15 34  4  0  0  0  0
 16 41  2  0  0  0  0
 17 18  1  0  0  0  0
 17 20  1  0  0  0  0
 17 51  1  0  0  0  0
 17 52  1  0  0  0  0
 18 23  1  0  0  0  0
 18 53  1  0  0  0  0
 18 54  1  0  0  0  0
 19 21  4  0  0  0  0
 19 29  1  0  0  0  0
 19 32  4  0  0  0  0
 20 24  1  0  0  0  0
 20 55  1  0  0  0  0
 20 56  1  0  0  0  0
 21 25  1  0  0  0  0
 21 34  4  0  0  0  0
 22 27  1  0  0  0  0
 22 28  1  0  0  0  0
 22 57  1  0  0  0  0
 22 58  1  0  0  0  0
 23 26  1  0  0  0  0
 23 59  1  0  0  0  0
 24 60  1  0  0  0  0
 24 61  1  0  0  0  0
 25 35  1  0  0  0  0
 25 62  1  0  0  0  0
 25 63  1  0  0  0  0
 27 31  1  0  0  0  0
 27 64  1  0  0  0  0
 28 30  1  0  0  0  0
 28 65  1  0  0  0  0
 28 66  1  0  0  0  0
 29 31  2  0  0  0  0
 29 67  1  0  0  0  0
 30 33  1  0  0  0  0
 30 68  1  0  0  0  0
 30 69  1  0  0  0  0
 31 70  1  0  0  0  0
 33 38  1  0  0  0  0
 33 71  1  0  0  0  0
 33 72  1  0  0  0  0
 35 36  2  0  0  0  0
 35 73  1  0  0  0  0
 36 37  1  0  0  0  0
 36 74  1  0  0  0  0
 37 39  1  0  0  0  0
 37 75  1  0  0  0  0
 37 76  1  0  0  0  0
 38 77  1  0  0  0  0
 38 78  1  0  0  0  0
 38 79  1  0  0  0  0
 39 40  1  0  0  0  0
 39 80  1  0  0  0  0
 39 81  1  0  0  0  0
 40 41  1  0  0  0  0
 40 82  1  0  0  0  0
 40 83  1  0  0  0  0
M  END
> <ConfClashScore>
0 

> <ConfOneFourInteractionScore>
-0.988166 

> <ConfScore>
-0.0939554 

> <ConfScorePBest>
0.00678005 

> <ConfTolerance>
1.69915 

$$$$
9548876
  PyMOL2.2          3D                             0

 83 83  0  0  0  0  0  0  0  0999 V2000
   -5.0146   -1.0250   -0.1190 H   0  0  0  1  0  0  0  0  0  0  0  0
   -3.5856    3.4859   -1.0766 H   0  0  0  1  0  0  0  0  0  0  0  0
   -2.1572    3.4877   -0.0705 H   0  0  0  1  0  0  0  0  0  0  0  0
   -3.1817    3.1853   -0.1324 C   0  0  0  1  0  0  0  0  0  0  0  0
   -3.7385    3.6462    0.6565 H   0  0  0  1  0  0  0  0  0  0  0  0
   -2.2190    1.2351   -5.5633 N   0  0  0  1  0  0  0  0  0  0  0  0
   -3.6349    2.9051   -7.7032 C   0  0  0  1  0  0  0  0  0  0  0  0
   -4.0847    2.4544   -9.0793 C   0  0  0  1  0  0  0  0  0  0  0  0
   -2.6418    3.6128   -7.5573 O   0  0  0  1  0  0  0  0  0  0  0  0
   -0.9377    0.5936   -5.3094 C   0  0  0  1  0  0  0  0  0  0  0  0
    1.5359    2.1430    0.6022 O   0  0  0  1  0  0  0  0  0  0  0  0
   -2.0975    2.7879   -3.9522 O   0  0  0  1  0  0  0  0  0  0  0  0
   -4.3844    2.4835   -6.6807 N   0  0  0  1  0  0  0  0  0  0  0  0
   -4.7872   -8.2605    3.1919 O   0  5  0  1  0  0  0  0  0  0  0  0
   -4.4540    1.0608   -0.2067 N   0  0  0  1  0  0  0  0  0  0  0  0
   -3.5578   -7.4032    4.9031 O   0  0  0  1  0  0  0  0  0  0  0  0
   -4.8801    2.3728   -2.8930 C   0  0  0  1  0  0  0  0  0  0  0  0
   -5.1904    2.3300   -4.3769 C   0  0  0  1  0  0  0  0  0  0  0  0
   -2.3157    0.7461    0.3116 C   0  0  0  1  0  0  0  0  0  0  0  0
   -5.9430    1.7564   -2.0490 C   0  0  0  1  0  0  0  0  0  0  0  0
   -2.9545   -0.5023    0.2961 C   0  0  0  1  0  0  0  0  0  0  0  0
    2.3602    0.2106    1.7360 C   0  0  0  1  0  0  0  0  0  0  0  0
   -4.0681    2.8105   -5.2983 C   0  0  0  1  0  0  0  0  0  0  0  0
   -5.7157    1.7111   -0.5620 C   0  0  0  1  0  0  0  0  0  0  0  0
   -2.3062   -1.8411    0.5829 C   0  0  0  1  0  0  0  0  0  0  0  0
   -2.7168    2.2550   -4.8582 C   0  0  0  1  0  0  0  0  0  0  0  0
    1.5546    0.7316    0.5483 C   0  0  0  1  0  0  0  0  0  0  0  0
    3.8199    0.6224    1.6997 C   0  0  0  1  0  0  0  0  0  0  0  0
   -0.8984    1.0425    0.5008 C   0  0  0  1  0  0  0  0  0  0  0  0
    4.5661    0.2923    2.9686 C   0  0  0  1  0  0  0  0  0  0  0  0
    0.1437    0.2426    0.5759 C   0  0  0  1  0  0  0  0  0  0  0  0
   -3.2705    1.7036   -0.0026 C   0  0  0  1  0  0  0  0  0  0  0  0
    5.9728    0.8307    3.0534 C   0  0  0  1  0  0  0  0  0  0  0  0
   -4.2810   -0.2935   -0.0275 C   0  0  0  1  0  0  0  0  0  0  0  0
   -1.6232   -1.9283    1.9031 C   0  0  0  1  0  0  0  0  0  0  0  0
   -2.0656   -2.7292    2.8488 C   0  0  0  1  0  0  0  0  0  0  0  0
   -3.1974   -3.7005    2.6447 C   0  0  0  1  0  0  0  0  0  0  0  0
    6.7432    0.8577    1.7434 C   0  0  0  1  0  0  0  0  0  0  0  0
   -3.0019   -5.0108    3.3961 C   0  0  0  1  0  0  0  0  0  0  0  0
   -4.0679   -6.0209    3.0039 C   0  0  0  1  0  0  0  0  0  0  0  0
   -4.0920   -7.2711    3.8143 C   0  0  0  1  0  0  0  0  0  0  0  0
   -2.7573    0.8933   -6.3075 H   0  0  0  1  0  0  0  0  0  0  0  0
   -3.7460    1.4549   -9.2562 H   0  0  0  1  0  0  0  0  0  0  0  0
   -3.6724    3.1068   -9.8205 H   0  0  0  1  0  0  0  0  0  0  0  0
   -5.1530    2.4834   -9.1324 H   0  0  0  1  0  0  0  0  0  0  0  0
   -0.1452    1.2721   -5.5473 H   0  0  0  1  0  0  0  0  0  0  0  0
   -0.8512   -0.2827   -5.9172 H   0  0  0  1  0  0  0  0  0  0  0  0
   -0.8745    0.3198   -4.2769 H   0  0  0  1  0  0  0  0  0  0  0  0
    1.5025    2.4283    1.5183 H   0  0  0  1  0  0  0  0  0  0  0  0
   -5.1747    1.9351   -6.8680 H   0  0  0  1  0  0  0  0  0  0  0  0
   -4.7646    3.3954   -2.5999 H   0  0  0  1  0  0  0  0  0  0  0  0
   -3.9640    1.8468   -2.7226 H   0  0  0  1  0  0  0  0  0  0  0  0
   -6.0473    2.9462   -4.5523 H   0  0  0  1  0  0  0  0  0  0  0  0
   -5.4193    1.3175   -4.6366 H   0  0  0  1  0  0  0  0  0  0  0  0
   -6.0722    0.7483   -2.3835 H   0  0  0  1  0  0  0  0  0  0  0  0
   -6.8447    2.3071   -2.2179 H   0  0  0  1  0  0  0  0  0  0  0  0
    2.3092   -0.8582    1.7379 H   0  0  0  1  0  0  0  0  0  0  0  0
    1.9228    0.5907    2.6355 H   0  0  0  1  0  0  0  0  0  0  0  0
   -4.0186    3.8757   -5.2100 H   0  0  0  1  0  0  0  0  0  0  0  0
   -5.7028    2.7130   -0.1865 H   0  0  0  1  0  0  0  0  0  0  0  0
   -6.5199    1.1701   -0.1086 H   0  0  0  1  0  0  0  0  0  0  0  0
   -1.5816   -2.0315   -0.1810 H   0  0  0  1  0  0  0  0  0  0  0  0
   -3.0661   -2.5937    0.5500 H   0  0  0  1  0  0  0  0  0  0  0  0
    2.0195    0.3992   -0.3563 H   0  0  0  1  0  0  0  0  0  0  0  0
    3.8703    1.6794    1.5416 H   0  0  0  1  0  0  0  0  0  0  0  0
    4.2949    0.1164    0.8853 H   0  0  0  1  0  0  0  0  0  0  0  0
   -0.6755    2.0543    0.5911 H   0  0  0  1  0  0  0  0  0  0  0  0
    4.6153   -0.7732    3.0543 H   0  0  0  1  0  0  0  0  0  0  0  0
    4.0103    0.6915    3.7911 H   0  0  0  1  0  0  0  0  0  0  0  0
   -0.0234   -0.7806    0.6587 H   0  0  0  1  0  0  0  0  0  0  0  0
    6.5178    0.2214    3.7438 H   0  0  0  1  0  0  0  0  0  0  0  0
    5.9203    1.8326    3.4255 H   0  0  0  1  0  0  0  0  0  0  0  0
   -0.7806   -1.3453    2.0811 H   0  0  0  1  0  0  0  0  0  0  0  0
   -1.6110   -2.6891    3.7833 H   0  0  0  1  0  0  0  0  0  0  0  0
   -3.2771   -3.9158    1.5996 H   0  0  0  1  0  0  0  0  0  0  0  0
   -4.1033   -3.2443    2.9855 H   0  0  0  1  0  0  0  0  0  0  0  0
    7.7684    1.0952    1.9368 H   0  0  0  1  0  0  0  0  0  0  0  0
    6.3214    1.5988    1.0971 H   0  0  0  1  0  0  0  0  0  0  0  0
    6.6820   -0.1020    1.2742 H   0  0  0  1  0  0  0  0  0  0  0  0
   -3.0648   -4.8248    4.4479 H   0  0  0  1  0  0  0  0  0  0  0  0
   -2.0372   -5.4096    3.1609 H   0  0  0  1  0  0  0  0  0  0  0  0
   -3.9047   -6.2931    1.9821 H   0  0  0  1  0  0  0  0  0  0  0  0
   -5.0225   -5.5473    3.0994 H   0  0  0  1  0  0  0  0  0  0  0  0
  1 34  1  0  0  0  0
  2  4  1  0  0  0  0
  3  4  1  0  0  0  0
  4  5  1  0  0  0  0
  4 32  1  0  0  0  0
  6 10  1  0  0  0  0
  6 26  1  0  0  0  0
  6 42  1  0  0  0  0
  7  8  1  0  0  0  0
  7  9  2  0  0  0  0
  7 13  1  0  0  0  0
  8 43  1  0  0  0  0
  8 44  1  0  0  0  0
  8 45  1  0  0  0  0
 10 46  1  0  0  0  0
 10 47  1  0  0  0  0
 10 48  1  0  0  0  0
 11 27  1  0  0  0  0
 11 49  1  0  0  0  0
 12 26  2  0  0  0  0
 13 23  1  0  0  0  0
 13 50  1  0  0  0  0
 14 41  1  0  0  0  0
 15 24  1  0  0  0  0
 15 32  4  0  0  0  0
 15 34  4  0  0  0  0
 16 41  2  0  0  0  0
 17 18  1  0  0  0  0
 17 20  1  0  0  0  0
 17 51  1  0  0  0  0
 17 52  1  0  0  0  0
 18 23  1  0  0  0  0
 18 53  1  0  0  0  0
 18 54  1  0  0  0  0
 19 21  4  0  0  0  0
 19 29  1  0  0  0  0
 19 32  4  0  0  0  0
 20 24  1  0  0  0  0
 20 55  1  0  0  0  0
 20 56  1  0  0  0  0
 21 25  1  0  0  0  0
 21 34  4  0  0  0  0
 22 27  1  0  0  0  0
 22 28  1  0  0  0  0
 22 57  1  0  0  0  0
 22 58  1  0  0  0  0
 23 26  1  0  0  0  0
 23 59  1  0  0  0  0
 24 60  1  0  0  0  0
 24 61  1  0  0  0  0
 25 35  1  0  0  0  0
 25 62  1  0  0  0  0
 25 63  1  0  0  0  0
 27 31  1  0  0  0  0
 27 64  1  0  0  0  0
 28 30  1  0  0  0  0
 28 65  1  0  0  0  0
 28 66  1  0  0  0  0
 29 31  2  0  0  0  0
 29 67  1  0  0  0  0
 30 33  1  0  0  0  0
 30 68  1  0  0  0  0
 30 69  1  0  0  0  0
 31 70  1  0  0  0  0
 33 38  1  0  0  0  0
 33 71  1  0  0  0  0
 33 72  1  0  0  0  0
 35 36  2  0  0  0  0
 35 73  1  0  0  0  0
 36 37  1  0  0  0  0
 36 74  1  0  0  0  0
 37 39  1  0  0  0  0
 37 75  1  0  0  0  0
 37 76  1  0  0  0  0
 38 77  1  0  0  0  0
 38 78  1  0  0  0  0
 38 79  1  0  0  0  0
 39 40  1  0  0  0  0
 39 80  1  0  0  0  0
 39 81  1  0  0  0  0
 40 41  1  0  0  0  0
 40 82  1  0  0  0  0
 40 83  1  0  0  0  0
M  END
> <ConfClashScore>
0 

> <ConfOneFourInteractionScore>
-0.983009 

> <ConfScore>
-0.0920722 

> <ConfScorePBest>
0.00675157 

> <ConfTolerance>
1.8848 

$$$$
9548876
  PyMOL2.2          3D                             0

 83 83  0  0  0  0  0  0  0  0999 V2000
   -5.0183   -1.0372   -0.1247 H   0  0  0  1  0  0  0  0  0  0  0  0
   -2.3585    3.4138   -0.8126 H   0  0  0  1  0  0  0  0  0  0  0  0
   -2.9616    3.6071    0.8158 H   0  0  0  1  0  0  0  0  0  0  0  0
   -3.1627    3.1826   -0.1456 C   0  0  0  1  0  0  0  0  0  0  0  0
   -4.0741    3.5889   -0.5319 H   0  0  0  1  0  0  0  0  0  0  0  0
   -9.4489    5.4840   -4.2932 N   0  0  0  1  0  0  0  0  0  0  0  0
  -10.5421    2.5964   -5.9298 C   0  0  0  1  0  0  0  0  0  0  0  0
  -10.6410    2.6169   -7.4428 C   0  0  0  1  0  0  0  0  0  0  0  0
  -11.4969    2.2570   -5.2321 O   0  0  0  1  0  0  0  0  0  0  0  0
   -9.8948    6.8470   -4.0455 C   0  0  0  1  0  0  0  0  0  0  0  0
    2.2407   -0.1716   -0.2787 O   0  0  0  1  0  0  0  0  0  0  0  0
  -10.1554    4.5580   -2.3619 O   0  0  0  1  0  0  0  0  0  0  0  0
   -9.3584    2.9688   -5.4177 N   0  0  0  1  0  0  0  0  0  0  0  0
   -7.4057   -6.5066   -1.9158 O   0  5  0  1  0  0  0  0  0  0  0  0
   -4.4713    1.0516   -0.2243 N   0  0  0  1  0  0  0  0  0  0  0  0
   -7.3286   -4.2501   -1.9758 O   0  0  0  1  0  0  0  0  0  0  0  0
   -7.4117    2.3830   -2.2390 C   0  0  0  1  0  0  0  0  0  0  0  0
   -7.6609    2.7990   -3.6760 C   0  0  0  1  0  0  0  0  0  0  0  0
   -2.3341    0.7553    0.3093 C   0  0  0  1  0  0  0  0  0  0  0  0
   -5.9734    1.9705   -1.9718 C   0  0  0  1  0  0  0  0  0  0  0  0
   -2.9643   -0.4976    0.2991 C   0  0  0  1  0  0  0  0  0  0  0  0
    1.8052    2.1179    0.3263 C   0  0  0  1  0  0  0  0  0  0  0  0
   -9.1382    3.1086   -3.9739 C   0  0  0  1  0  0  0  0  0  0  0  0
   -5.7583    1.6938   -0.4936 C   0  0  0  1  0  0  0  0  0  0  0  0
   -2.2512   -1.8124    0.5090 C   0  0  0  1  0  0  0  0  0  0  0  0
   -9.6089    4.4614   -3.4483 C   0  0  0  1  0  0  0  0  0  0  0  0
    1.5503    0.6441    0.6553 C   0  0  0  1  0  0  0  0  0  0  0  0
    1.2207    2.4745   -1.0180 C   0  0  0  1  0  0  0  0  0  0  0  0
   -0.9358    1.0575    0.6021 C   0  0  0  1  0  0  0  0  0  0  0  0
    1.3278    3.9372   -1.4099 C   0  0  0  1  0  0  0  0  0  0  0  0
    0.1026    0.2874    0.6487 C   0  0  0  1  0  0  0  0  0  0  0  0
   -3.2934    1.7039   -0.0177 C   0  0  0  1  0  0  0  0  0  0  0  0
    0.8677    4.2722   -2.8184 C   0  0  0  1  0  0  0  0  0  0  0  0
   -4.2903   -0.3001   -0.0341 C   0  0  0  1  0  0  0  0  0  0  0  0
   -1.7313   -2.3172   -0.7995 C   0  0  0  1  0  0  0  0  0  0  0  0
   -2.1282   -3.3666   -1.4434 C   0  0  0  1  0  0  0  0  0  0  0  0
   -3.0691   -4.4479   -1.0158 C   0  0  0  1  0  0  0  0  0  0  0  0
    0.9534    5.7545   -3.1438 C   0  0  0  1  0  0  0  0  0  0  0  0
   -4.4578   -4.3649   -1.5992 C   0  0  0  1  0  0  0  0  0  0  0  0
   -5.3902   -5.5086   -1.2345 C   0  0  0  1  0  0  0  0  0  0  0  0
   -6.7787   -5.3129   -1.7382 C   0  0  0  1  0  0  0  0  0  0  0  0
   -8.9972    5.3025   -5.1438 H   0  0  0  1  0  0  0  0  0  0  0  0
  -11.4556    3.2443   -7.7390 H   0  0  0  1  0  0  0  0  0  0  0  0
  -10.8075    1.6230   -7.8025 H   0  0  0  1  0  0  0  0  0  0  0  0
   -9.7298    2.9978   -7.8544 H   0  0  0  1  0  0  0  0  0  0  0  0
  -10.8937    6.9677   -4.4096 H   0  0  0  1  0  0  0  0  0  0  0  0
   -9.2461    7.5316   -4.5509 H   0  0  0  1  0  0  0  0  0  0  0  0
   -9.8725    7.0437   -2.9940 H   0  0  0  1  0  0  0  0  0  0  0  0
    3.1825    0.0067   -0.2253 H   0  0  0  1  0  0  0  0  0  0  0  0
   -8.6155    3.1538   -6.0295 H   0  0  0  1  0  0  0  0  0  0  0  0
   -8.0501    1.5555   -2.0098 H   0  0  0  1  0  0  0  0  0  0  0  0
   -7.6524    3.2073   -1.6006 H   0  0  0  1  0  0  0  0  0  0  0  0
   -7.3444    2.0043   -4.3189 H   0  0  0  1  0  0  0  0  0  0  0  0
   -7.0826    3.6757   -3.8805 H   0  0  0  1  0  0  0  0  0  0  0  0
   -5.3192    2.7592   -2.2799 H   0  0  0  1  0  0  0  0  0  0  0  0
   -5.7528    1.0849   -2.5303 H   0  0  0  1  0  0  0  0  0  0  0  0
    2.8602    2.2961    0.3086 H   0  0  0  1  0  0  0  0  0  0  0  0
    1.3524    2.7289    1.0790 H   0  0  0  1  0  0  0  0  0  0  0  0
   -9.7202    2.3589   -3.4798 H   0  0  0  1  0  0  0  0  0  0  0  0
   -5.7964    2.6216    0.0380 H   0  0  0  1  0  0  0  0  0  0  0  0
   -6.5410    1.0514   -0.1476 H   0  0  0  1  0  0  0  0  0  0  0  0
   -2.9345   -2.5261    0.9196 H   0  0  0  1  0  0  0  0  0  0  0  0
   -1.4343   -1.6700    1.1853 H   0  0  0  1  0  0  0  0  0  0  0  0
    1.9325    0.4573    1.6371 H   0  0  0  1  0  0  0  0  0  0  0  0
    0.1836    2.2115   -1.0067 H   0  0  0  1  0  0  0  0  0  0  0  0
    1.7278    1.8961   -1.7618 H   0  0  0  1  0  0  0  0  0  0  0  0
   -0.7426    2.0585    0.8074 H   0  0  0  1  0  0  0  0  0  0  0  0
    2.3536    4.2281   -1.3203 H   0  0  0  1  0  0  0  0  0  0  0  0
    0.7341    4.5061   -0.7252 H   0  0  0  1  0  0  0  0  0  0  0  0
   -0.1029   -0.7314    0.6873 H   0  0  0  1  0  0  0  0  0  0  0  0
   -0.1498    3.9594   -2.9264 H   0  0  0  1  0  0  0  0  0  0  0  0
    1.4815    3.7366   -3.5122 H   0  0  0  1  0  0  0  0  0  0  0  0
   -0.9680   -1.7645   -1.2393 H   0  0  0  1  0  0  0  0  0  0  0  0
   -1.7350   -3.4744   -2.4001 H   0  0  0  1  0  0  0  0  0  0  0  0
   -3.1558   -4.4076    0.0499 H   0  0  0  1  0  0  0  0  0  0  0  0
   -2.6454   -5.3872   -1.3043 H   0  0  0  1  0  0  0  0  0  0  0  0
    0.4390    5.9490   -4.0617 H   0  0  0  1  0  0  0  0  0  0  0  0
    1.9801    6.0387   -3.2434 H   0  0  0  1  0  0  0  0  0  0  0  0
    0.5014    6.3192   -2.3553 H   0  0  0  1  0  0  0  0  0  0  0  0
   -4.3666   -4.3412   -2.6651 H   0  0  0  1  0  0  0  0  0  0  0  0
   -4.9044   -3.4542   -1.2587 H   0  0  0  1  0  0  0  0  0  0  0  0
   -5.4235   -5.5941   -0.1684 H   0  0  0  1  0  0  0  0  0  0  0  0
   -5.0002   -6.4127   -1.6533 H   0  0  0  1  0  0  0  0  0  0  0  0
  1 34  1  0  0  0  0
  2  4  1  0  0  0  0
  3  4  1  0  0  0  0
  4  5  1  0  0  0  0
  4 32  1  0  0  0  0
  6 10  1  0  0  0  0
  6 26  1  0  0  0  0
  6 42  1  0  0  0  0
  7  8  1  0  0  0  0
  7  9  2  0  0  0  0
  7 13  1  0  0  0  0
  8 43  1  0  0  0  0
  8 44  1  0  0  0  0
  8 45  1  0  0  0  0
 10 46  1  0  0  0  0
 10 47  1  0  0  0  0
 10 48  1  0  0  0  0
 11 27  1  0  0  0  0
 11 49  1  0  0  0  0
 12 26  2  0  0  0  0
 13 23  1  0  0  0  0
 13 50  1  0  0  0  0
 14 41  1  0  0  0  0
 15 24  1  0  0  0  0
 15 32  4  0  0  0  0
 15 34  4  0  0  0  0
 16 41  2  0  0  0  0
 17 18  1  0  0  0  0
 17 20  1  0  0  0  0
 17 51  1  0  0  0  0
 17 52  1  0  0  0  0
 18 23  1  0  0  0  0
 18 53  1  0  0  0  0
 18 54  1  0  0  0  0
 19 21  4  0  0  0  0
 19 29  1  0  0  0  0
 19 32  4  0  0  0  0
 20 24  1  0  0  0  0
 20 55  1  0  0  0  0
 20 56  1  0  0  0  0
 21 25  1  0  0  0  0
 21 34  4  0  0  0  0
 22 27  1  0  0  0  0
 22 28  1  0  0  0  0
 22 57  1  0  0  0  0
 22 58  1  0  0  0  0
 23 26  1  0  0  0  0
 23 59  1  0  0  0  0
 24 60  1  0  0  0  0
 24 61  1  0  0  0  0
 25 35  1  0  0  0  0
 25 62  1  0  0  0  0
 25 63  1  0  0  0  0
 27 31  1  0  0  0  0
 27 64  1  0  0  0  0
 28 30  1  0  0  0  0
 28 65  1  0  0  0  0
 28 66  1  0  0  0  0
 29 31  2  0  0  0  0
 29 67  1  0  0  0  0
 30 33  1  0  0  0  0
 30 68  1  0  0  0  0
 30 69  1  0  0  0  0
 31 70  1  0  0  0  0
 33 38  1  0  0  0  0
 33 71  1  0  0  0  0
 33 72  1  0  0  0  0
 35 36  2  0  0  0  0
 35 73  1  0  0  0  0
 36 37  1  0  0  0  0
 36 74  1  0  0  0  0
 37 39  1  0  0  0  0
 37 75  1  0  0  0  0
 37 76  1  0  0  0  0
 38 77  1  0  0  0  0
 38 78  1  0  0  0  0
 38 79  1  0  0  0  0
 39 40  1  0  0  0  0
 39 80  1  0  0  0  0
 39 81  1  0  0  0  0
 40 41  1  0  0  0  0
 40 82  1  0  0  0  0
 40 83  1  0  0  0  0
M  END
> <ConfClashScore>
0 

> <ConfOneFourInteractionScore>
-0.985472 

> <ConfScore>
-0.0903711 

> <ConfScorePBest>
0.00672309 

> <ConfTolerance>
1.53007 

$$$$
9548876
  PyMOL2.2          3D                             0

 83 83  0  0  0  0  0  0  0  0999 V2000
   -5.0135   -1.0399   -0.0816 H   0  0  0  1  0  0  0  0  0  0  0  0
   -3.8138    3.6570    0.5866 H   0  0  0  1  0  0  0  0  0  0  0  0
   -3.4581    3.4882   -1.1156 H   0  0  0  1  0  0  0  0  0  0  0  0
   -3.1730    3.1863   -0.1294 C   0  0  0  1  0  0  0  0  0  0  0  0
   -2.1596    3.4766    0.0541 H   0  0  0  1  0  0  0  0  0  0  0  0
   -9.3778    4.2036   -3.6038 N   0  0  0  1  0  0  0  0  0  0  0  0
   -9.8067    1.7671   -6.9287 C   0  0  0  1  0  0  0  0  0  0  0  0
   -9.6230    1.1411   -8.2975 C   0  0  0  1  0  0  0  0  0  0  0  0
  -10.8434    2.3593   -6.6314 O   0  0  0  1  0  0  0  0  0  0  0  0
   -9.5307    5.6407   -3.4325 C   0  0  0  1  0  0  0  0  0  0  0  0
    1.6460    3.4926    0.7098 O   0  0  0  1  0  0  0  0  0  0  0  0
   -8.4369    4.3506   -5.6323 O   0  0  0  1  0  0  0  0  0  0  0  0
   -8.7750    1.6302   -6.0819 N   0  0  0  1  0  0  0  0  0  0  0  0
    5.2587   -3.1256    2.2516 O   0  5  0  1  0  0  0  0  0  0  0  0
   -4.4767    1.0515   -0.1826 N   0  0  0  1  0  0  0  0  0  0  0  0
    4.1692   -1.1166    2.1491 O   0  0  0  1  0  0  0  0  0  0  0  0
   -7.2497    2.0187   -2.6585 C   0  0  0  1  0  0  0  0  0  0  0  0
   -7.3116    1.7264   -4.1453 C   0  0  0  1  0  0  0  0  0  0  0  0
   -2.3225    0.7585    0.2800 C   0  0  0  1  0  0  0  0  0  0  0  0
   -6.0160    1.4778   -2.0723 C   0  0  0  1  0  0  0  0  0  0  0  0
   -2.9488   -0.4964    0.2803 C   0  0  0  1  0  0  0  0  0  0  0  0
    1.8024    1.1374    1.1704 C   0  0  0  1  0  0  0  0  0  0  0  0
   -8.6673    2.1539   -4.7284 C   0  0  0  1  0  0  0  0  0  0  0  0
   -5.7286    1.6819   -0.6025 C   0  0  0  1  0  0  0  0  0  0  0  0
   -2.2817   -1.8247    0.5487 C   0  0  0  1  0  0  0  0  0  0  0  0
   -8.8458    3.6690   -4.7067 C   0  0  0  1  0  0  0  0  0  0  0  0
    1.2675    2.2167    0.2167 C   0  0  0  1  0  0  0  0  0  0  0  0
    1.3774    1.2786    2.6221 C   0  0  0  1  0  0  0  0  0  0  0  0
   -0.9171    1.0631    0.5302 C   0  0  0  1  0  0  0  0  0  0  0  0
    1.7810    0.0967    3.4850 C   0  0  0  1  0  0  0  0  0  0  0  0
   -0.2080    2.0500    0.0365 C   0  0  0  1  0  0  0  0  0  0  0  0
   -3.2949    1.7062   -0.0088 C   0  0  0  1  0  0  0  0  0  0  0  0
    1.3778    0.2495    4.9435 C   0  0  0  1  0  0  0  0  0  0  0  0
   -4.2853   -0.3010   -0.0087 C   0  0  0  1  0  0  0  0  0  0  0  0
   -1.3482   -2.3420   -0.4993 C   0  0  0  1  0  0  0  0  0  0  0  0
   -0.2148   -2.9044   -0.3121 C   0  0  0  1  0  0  0  0  0  0  0  0
    0.5875   -3.1848    0.9288 C   0  0  0  1  0  0  0  0  0  0  0  0
    1.7509   -0.9491    5.8006 C   0  0  0  1  0  0  0  0  0  0  0  0
    1.9308   -2.4781    1.0096 C   0  0  0  1  0  0  0  0  0  0  0  0
    2.8402   -3.0347    2.0929 C   0  0  0  1  0  0  0  0  0  0  0  0
    4.1544   -2.3364    2.1673 C   0  0  0  1  0  0  0  0  0  0  0  0
   -9.6753    3.6073   -2.8853 H   0  0  0  1  0  0  0  0  0  0  0  0
  -10.4703    1.3675   -8.9104 H   0  0  0  1  0  0  0  0  0  0  0  0
   -9.5309    0.0800   -8.1946 H   0  0  0  1  0  0  0  0  0  0  0  0
   -8.7382    1.5339   -8.7533 H   0  0  0  1  0  0  0  0  0  0  0  0
   -8.6569    6.0392   -2.9608 H   0  0  0  1  0  0  0  0  0  0  0  0
  -10.3867    5.8376   -2.8214 H   0  0  0  1  0  0  0  0  0  0  0  0
   -9.6610    6.1018   -4.3891 H   0  0  0  1  0  0  0  0  0  0  0  0
    0.8623    4.0321    0.8377 H   0  0  0  1  0  0  0  0  0  0  0  0
   -8.0067    1.1196   -6.4125 H   0  0  0  1  0  0  0  0  0  0  0  0
   -8.0932    1.5695   -2.1772 H   0  0  0  1  0  0  0  0  0  0  0  0
   -7.2747    3.0778   -2.5077 H   0  0  0  1  0  0  0  0  0  0  0  0
   -7.1775    0.6766   -4.3024 H   0  0  0  1  0  0  0  0  0  0  0  0
   -6.5310    2.2644   -4.6414 H   0  0  0  1  0  0  0  0  0  0  0  0
   -5.2006    1.9140   -2.6106 H   0  0  0  1  0  0  0  0  0  0  0  0
   -6.0308    0.4212   -2.2409 H   0  0  0  1  0  0  0  0  0  0  0  0
    2.8714    1.1673    1.1356 H   0  0  0  1  0  0  0  0  0  0  0  0
    1.4600    0.1869    0.8178 H   0  0  0  1  0  0  0  0  0  0  0  0
   -9.4373    1.7202   -4.1250 H   0  0  0  1  0  0  0  0  0  0  0  0
   -5.6657    2.7322   -0.4081 H   0  0  0  1  0  0  0  0  0  0  0  0
   -6.5318    1.2611   -0.0344 H   0  0  0  1  0  0  0  0  0  0  0  0
   -3.0547   -2.5530    0.6796 H   0  0  0  1  0  0  0  0  0  0  0  0
   -1.7247   -1.7279    1.4572 H   0  0  0  1  0  0  0  0  0  0  0  0
    1.7300    2.0612   -0.7356 H   0  0  0  1  0  0  0  0  0  0  0  0
    0.3124    1.3754    2.6559 H   0  0  0  1  0  0  0  0  0  0  0  0
    1.8292    2.1616    3.0235 H   0  0  0  1  0  0  0  0  0  0  0  0
   -0.4179    0.4204    1.1777 H   0  0  0  1  0  0  0  0  0  0  0  0
    2.8444   -0.0113    3.4365 H   0  0  0  1  0  0  0  0  0  0  0  0
    1.3144   -0.7835    3.0944 H   0  0  0  1  0  0  0  0  0  0  0  0
   -0.7090    2.7703   -0.5218 H   0  0  0  1  0  0  0  0  0  0  0  0
    0.3172    0.3828    4.9901 H   0  0  0  1  0  0  0  0  0  0  0  0
    1.8644    1.1155    5.3411 H   0  0  0  1  0  0  0  0  0  0  0  0
   -1.6538   -2.2324   -1.4873 H   0  0  0  1  0  0  0  0  0  0  0  0
    0.2404   -3.2314   -1.1881 H   0  0  0  1  0  0  0  0  0  0  0  0
    0.7657   -4.2388    0.9755 H   0  0  0  1  0  0  0  0  0  0  0  0
    0.0045   -2.8833    1.7739 H   0  0  0  1  0  0  0  0  0  0  0  0
    1.2872   -1.8288    5.4057 H   0  0  0  1  0  0  0  0  0  0  0  0
    1.4147   -0.7886    6.8036 H   0  0  0  1  0  0  0  0  0  0  0  0
    2.8137   -1.0737    5.7958 H   0  0  0  1  0  0  0  0  0  0  0  0
    1.7573   -1.4418    1.2117 H   0  0  0  1  0  0  0  0  0  0  0  0
    2.4251   -2.5802    0.0661 H   0  0  0  1  0  0  0  0  0  0  0  0
    3.0160   -4.0706    1.8909 H   0  0  0  1  0  0  0  0  0  0  0  0
    2.3468   -2.9335    3.0369 H   0  0  0  1  0  0  0  0  0  0  0  0
  1 34  1  0  0  0  0
  2  4  1  0  0  0  0
  3  4  1  0  0  0  0
  4  5  1  0  0  0  0
  4 32  1  0  0  0  0
  6 10  1  0  0  0  0
  6 26  1  0  0  0  0
  6 42  1  0  0  0  0
  7  8  1  0  0  0  0
  7  9  2  0  0  0  0
  7 13  1  0  0  0  0
  8 43  1  0  0  0  0
  8 44  1  0  0  0  0
  8 45  1  0  0  0  0
 10 46  1  0  0  0  0
 10 47  1  0  0  0  0
 10 48  1  0  0  0  0
 11 27  1  0  0  0  0
 11 49  1  0  0  0  0
 12 26  2  0  0  0  0
 13 23  1  0  0  0  0
 13 50  1  0  0  0  0
 14 41  1  0  0  0  0
 15 24  1  0  0  0  0
 15 32  4  0  0  0  0
 15 34  4  0  0  0  0
 16 41  2  0  0  0  0
 17 18  1  0  0  0  0
 17 20  1  0  0  0  0
 17 51  1  0  0  0  0
 17 52  1  0  0  0  0
 18 23  1  0  0  0  0
 18 53  1  0  0  0  0
 18 54  1  0  0  0  0
 19 21  4  0  0  0  0
 19 29  1  0  0  0  0
 19 32  4  0  0  0  0
 20 24  1  0  0  0  0
 20 55  1  0  0  0  0
 20 56  1  0  0  0  0
 21 25  1  0  0  0  0
 21 34  4  0  0  0  0
 22 27  1  0  0  0  0
 22 28  1  0  0  0  0
 22 57  1  0  0  0  0
 22 58  1  0  0  0  0
 23 26  1  0  0  0  0
 23 59  1  0  0  0  0
 24 60  1  0  0  0  0
 24 61  1  0  0  0  0
 25 35  1  0  0  0  0
 25 62  1  0  0  0  0
 25 63  1  0  0  0  0
 27 31  1  0  0  0  0
 27 64  1  0  0  0  0
 28 30  1  0  0  0  0
 28 65  1  0  0  0  0
 28 66  1  0  0  0  0
 29 31  2  0  0  0  0
 29 67  1  0  0  0  0
 30 33  1  0  0  0  0
 30 68  1  0  0  0  0
 30 69  1  0  0  0  0
 31 70  1  0  0  0  0
 33 38  1  0  0  0  0
 33 71  1  0  0  0  0
 33 72  1  0  0  0  0
 35 36  2  0  0  0  0
 35 73  1  0  0  0  0
 36 37  1  0  0  0  0
 36 74  1  0  0  0  0
 37 39  1  0  0  0  0
 37 75  1  0  0  0  0
 37 76  1  0  0  0  0
 38 77  1  0  0  0  0
 38 78  1  0  0  0  0
 38 79  1  0  0  0  0
 39 40  1  0  0  0  0
 39 80  1  0  0  0  0
 39 81  1  0  0  0  0
 40 41  1  0  0  0  0
 40 82  1  0  0  0  0
 40 83  1  0  0  0  0
M  END
> <ConfClashScore>
0 

> <ConfOneFourInteractionScore>
-0.994016 

> <ConfScore>
-0.0891519 

> <ConfScorePBest>
0.0066946 

> <ConfTolerance>
1.64746 

$$$$
9548876
  PyMOL2.2          3D                             0

 83 83  0  0  0  0  0  0  0  0999 V2000
   -5.0022   -1.0348   -0.1394 H   0  0  0  1  0  0  0  0  0  0  0  0
   -2.3321    3.5305    0.4377 H   0  0  0  1  0  0  0  0  0  0  0  0
   -4.0615    3.6560    0.2235 H   0  0  0  1  0  0  0  0  0  0  0  0
   -3.1675    3.1943   -0.1402 C   0  0  0  1  0  0  0  0  0  0  0  0
   -3.0207    3.4593   -1.1664 H   0  0  0  1  0  0  0  0  0  0  0  0
   -9.6686    4.7141   -4.0808 N   0  0  0  1  0  0  0  0  0  0  0  0
  -10.5779    2.4756   -6.2337 C   0  0  0  1  0  0  0  0  0  0  0  0
  -10.4318    2.6837   -7.7285 C   0  0  0  1  0  0  0  0  0  0  0  0
  -11.6852    2.3551   -5.7111 O   0  0  0  1  0  0  0  0  0  0  0  0
  -10.2509    5.9673   -3.6245 C   0  0  0  1  0  0  0  0  0  0  0  0
    1.8607    1.5087    0.5078 O   0  0  0  1  0  0  0  0  0  0  0  0
  -10.3892    3.5153   -2.3301 O   0  0  0  1  0  0  0  0  0  0  0  0
   -9.4319    2.4335   -5.5359 N   0  0  0  1  0  0  0  0  0  0  0  0
    2.6310   -6.2832   -0.1174 O   0  5  0  1  0  0  0  0  0  0  0  0
   -4.4661    1.0575   -0.2267 N   0  0  0  1  0  0  0  0  0  0  0  0
    0.9824   -7.8641   -0.2775 O   0  0  0  1  0  0  0  0  0  0  0  0
   -7.5735    2.0785   -2.2161 C   0  0  0  1  0  0  0  0  0  0  0  0
   -7.9093    1.9574   -3.6633 C   0  0  0  1  0  0  0  0  0  0  0  0
   -2.3241    0.7678    0.2914 C   0  0  0  1  0  0  0  0  0  0  0  0
   -6.1725    1.5866   -1.9493 C   0  0  0  1  0  0  0  0  0  0  0  0
   -2.9483   -0.4881    0.2757 C   0  0  0  1  0  0  0  0  0  0  0  0
    1.5250    3.8144    1.0601 C   0  0  0  1  0  0  0  0  0  0  0  0
   -9.3414    2.2926   -4.0915 C   0  0  0  1  0  0  0  0  0  0  0  0
   -5.7830    1.6449   -0.4820 C   0  0  0  1  0  0  0  0  0  0  0  0
   -2.2844   -1.8193    0.5622 C   0  0  0  1  0  0  0  0  0  0  0  0
   -9.8202    3.5698   -3.4079 C   0  0  0  1  0  0  0  0  0  0  0  0
    1.0661    2.3676    1.3368 C   0  0  0  1  0  0  0  0  0  0  0  0
    2.0411    4.0226   -0.3534 C   0  0  0  1  0  0  0  0  0  0  0  0
   -0.9168    1.0199    0.5853 C   0  0  0  1  0  0  0  0  0  0  0  0
    2.6070    5.4145   -0.5898 C   0  0  0  1  0  0  0  0  0  0  0  0
   -0.3881    2.0911    1.1218 C   0  0  0  1  0  0  0  0  0  0  0  0
   -3.2901    1.7140   -0.0226 C   0  0  0  1  0  0  0  0  0  0  0  0
    3.1870    5.5296   -1.9901 C   0  0  0  1  0  0  0  0  0  0  0  0
   -4.2772   -0.2948   -0.0478 C   0  0  0  1  0  0  0  0  0  0  0  0
   -3.2117   -2.9725    0.3446 C   0  0  0  1  0  0  0  0  0  0  0  0
   -2.8776   -4.1057   -0.2202 C   0  0  0  1  0  0  0  0  0  0  0  0
   -1.6413   -4.3848   -1.0300 C   0  0  0  1  0  0  0  0  0  0  0  0
    3.8083    6.8872   -2.2752 C   0  0  0  1  0  0  0  0  0  0  0  0
   -0.7616   -5.4468   -0.4183 C   0  0  0  1  0  0  0  0  0  0  0  0
    0.5670   -5.6794   -1.1193 C   0  0  0  1  0  0  0  0  0  0  0  0
    1.3952   -6.7317   -0.4659 C   0  0  0  1  0  0  0  0  0  0  0  0
   -9.1471    4.7093   -4.9105 H   0  0  0  1  0  0  0  0  0  0  0  0
  -10.8943    3.6073   -8.0075 H   0  0  0  1  0  0  0  0  0  0  0  0
  -10.9046    1.8769   -8.2486 H   0  0  0  1  0  0  0  0  0  0  0  0
   -9.3932    2.7137   -7.9843 H   0  0  0  1  0  0  0  0  0  0  0  0
   -9.5705    6.4558   -2.9588 H   0  0  0  1  0  0  0  0  0  0  0  0
  -11.1692    5.7681   -3.1125 H   0  0  0  1  0  0  0  0  0  0  0  0
  -10.4413    6.5993   -4.4666 H   0  0  0  1  0  0  0  0  0  0  0  0
    2.3647    0.9067    1.0602 H   0  0  0  1  0  0  0  0  0  0  0  0
   -8.5930    2.5029   -6.0378 H   0  0  0  1  0  0  0  0  0  0  0  0
   -8.2650    1.4946   -1.6454 H   0  0  0  1  0  0  0  0  0  0  0  0
   -7.6465    3.1052   -1.9237 H   0  0  0  1  0  0  0  0  0  0  0  0
   -7.7179    0.9450   -3.9522 H   0  0  0  1  0  0  0  0  0  0  0  0
   -7.2540    2.6117   -4.1994 H   0  0  0  1  0  0  0  0  0  0  0  0
   -5.4885    2.1922   -2.5062 H   0  0  0  1  0  0  0  0  0  0  0  0
   -6.1009    0.5712   -2.2791 H   0  0  0  1  0  0  0  0  0  0  0  0
    2.3083    4.0590    1.7468 H   0  0  0  1  0  0  0  0  0  0  0  0
    0.6941    4.4699    1.2179 H   0  0  0  1  0  0  0  0  0  0  0  0
   -9.9766    1.4903   -3.7790 H   0  0  0  1  0  0  0  0  0  0  0  0
   -5.7675    2.6689   -0.1719 H   0  0  0  1  0  0  0  0  0  0  0  0
   -6.5134    1.1100    0.0882 H   0  0  0  1  0  0  0  0  0  0  0  0
   -1.9566   -1.8284    1.5808 H   0  0  0  1  0  0  0  0  0  0  0  0
   -1.4400   -1.9294   -0.0857 H   0  0  0  1  0  0  0  0  0  0  0  0
    1.2885    2.1545    2.3615 H   0  0  0  1  0  0  0  0  0  0  0  0
    1.2328    3.8645   -1.0365 H   0  0  0  1  0  0  0  0  0  0  0  0
    2.8132    3.3060   -0.5417 H   0  0  0  1  0  0  0  0  0  0  0  0
   -0.2542    0.2571    0.3389 H   0  0  0  1  0  0  0  0  0  0  0  0
    3.3786    5.6058    0.1264 H   0  0  0  1  0  0  0  0  0  0  0  0
    1.8250    6.1355   -0.4737 H   0  0  0  1  0  0  0  0  0  0  0  0
   -1.0513    2.8298    1.4320 H   0  0  0  1  0  0  0  0  0  0  0  0
    2.4022    5.3603   -2.6974 H   0  0  0  1  0  0  0  0  0  0  0  0
    3.9414    4.7799   -2.1075 H   0  0  0  1  0  0  0  0  0  0  0  0
   -4.1951   -2.8665    0.6659 H   0  0  0  1  0  0  0  0  0  0  0  0
   -3.5388   -4.8986   -0.0953 H   0  0  0  1  0  0  0  0  0  0  0  0
   -1.0762   -3.4799   -1.1117 H   0  0  0  1  0  0  0  0  0  0  0  0
   -1.9390   -4.7093   -2.0051 H   0  0  0  1  0  0  0  0  0  0  0  0
    4.6571    7.0320   -1.6401 H   0  0  0  1  0  0  0  0  0  0  0  0
    3.0875    7.6554   -2.0877 H   0  0  0  1  0  0  0  0  0  0  0  0
    4.1176    6.9297   -3.2987 H   0  0  0  1  0  0  0  0  0  0  0  0
   -1.3042   -6.3690   -0.4261 H   0  0  0  1  0  0  0  0  0  0  0  0
   -0.5555   -5.1621    0.5923 H   0  0  0  1  0  0  0  0  0  0  0  0
    1.1181   -4.7623   -1.1176 H   0  0  0  1  0  0  0  0  0  0  0  0
    0.3720   -5.9771   -2.1284 H   0  0  0  1  0  0  0  0  0  0  0  0
  1 34  1  0  0  0  0
  2  4  1  0  0  0  0
  3  4  1  0  0  0  0
  4  5  1  0  0  0  0
  4 32  1  0  0  0  0
  6 10  1  0  0  0  0
  6 26  1  0  0  0  0
  6 42  1  0  0  0  0
  7  8  1  0  0  0  0
  7  9  2  0  0  0  0
  7 13  1  0  0  0  0
  8 43  1  0  0  0  0
  8 44  1  0  0  0  0
  8 45  1  0  0  0  0
 10 46  1  0  0  0  0
 10 47  1  0  0  0  0
 10 48  1  0  0  0  0
 11 27  1  0  0  0  0
 11 49  1  0  0  0  0
 12 26  2  0  0  0  0
 13 23  1  0  0  0  0
 13 50  1  0  0  0  0
 14 41  1  0  0  0  0
 15 24  1  0  0  0  0
 15 32  4  0  0  0  0
 15 34  4  0  0  0  0
 16 41  2  0  0  0  0
 17 18  1  0  0  0  0
 17 20  1  0  0  0  0
 17 51  1  0  0  0  0
 17 52  1  0  0  0  0
 18 23  1  0  0  0  0
 18 53  1  0  0  0  0
 18 54  1  0  0  0  0
 19 21  4  0  0  0  0
 19 29  1  0  0  0  0
 19 32  4  0  0  0  0
 20 24  1  0  0  0  0
 20 55  1  0  0  0  0
 20 56  1  0  0  0  0
 21 25  1  0  0  0  0
 21 34  4  0  0  0  0
 22 27  1  0  0  0  0
 22 28  1  0  0  0  0
 22 57  1  0  0  0  0
 22 58  1  0  0  0  0
 23 26  1  0  0  0  0
 23 59  1  0  0  0  0
 24 60  1  0  0  0  0
 24 61  1  0  0  0  0
 25 35  1  0  0  0  0
 25 62  1  0  0  0  0
 25 63  1  0  0  0  0
 27 31  1  0  0  0  0
 27 64  1  0  0  0  0
 28 30  1  0  0  0  0
 28 65  1  0  0  0  0
 28 66  1  0  0  0  0
 29 31  2  0  0  0  0
 29 67  1  0  0  0  0
 30 33  1  0  0  0  0
 30 68  1  0  0  0  0
 30 69  1  0  0  0  0
 31 70  1  0  0  0  0
 33 38  1  0  0  0  0
 33 71  1  0  0  0  0
 33 72  1  0  0  0  0
 35 36  2  0  0  0  0
 35 73  1  0  0  0  0
 36 37  1  0  0  0  0
 36 74  1  0  0  0  0
 37 39  1  0  0  0  0
 37 75  1  0  0  0  0
 37 76  1  0  0  0  0
 38 77  1  0  0  0  0
 38 78  1  0  0  0  0
 38 79  1  0  0  0  0
 39 40  1  0  0  0  0
 39 80  1  0  0  0  0
 39 81  1  0  0  0  0
 40 41  1  0  0  0  0
 40 82  1  0  0  0  0
 40 83  1  0  0  0  0
M  END
> <ConfClashScore>
0 

> <ConfOneFourInteractionScore>
-0.987896 

> <ConfScore>
-0.0878892 

> <ConfScorePBest>
0.00666612 

> <ConfTolerance>
1.46182 

$$$$
9548876
  PyMOL2.2          3D                             0

 83 83  0  0  0  0  0  0  0  0999 V2000
   -5.0117   -1.0553   -0.0830 H   0  0  0  1  0  0  0  0  0  0  0  0
   -2.4309    3.5162    0.5932 H   0  0  0  1  0  0  0  0  0  0  0  0
   -4.0906    3.6657    0.0682 H   0  0  0  1  0  0  0  0  0  0  0  0
   -3.1538    3.1852   -0.1229 C   0  0  0  1  0  0  0  0  0  0  0  0
   -2.8192    3.4341   -1.1083 H   0  0  0  1  0  0  0  0  0  0  0  0
   -7.9087    4.2938    6.0560 N   0  0  0  1  0  0  0  0  0  0  0  0
   -5.6312    2.1130    5.1457 C   0  0  0  1  0  0  0  0  0  0  0  0
   -4.1928    1.9544    5.5983 C   0  0  0  1  0  0  0  0  0  0  0  0
   -6.4806    1.2781    5.4100 O   0  0  0  1  0  0  0  0  0  0  0  0
   -8.7336    4.4535    7.2442 C   0  0  0  1  0  0  0  0  0  0  0  0
    1.7949    3.1502   -0.1513 O   0  0  0  1  0  0  0  0  0  0  0  0
   -9.4132    3.4159    4.6100 O   0  0  0  1  0  0  0  0  0  0  0  0
   -5.8558    3.2359    4.4465 N   0  0  0  1  0  0  0  0  0  0  0  0
   -0.1566   -8.3468    2.0711 O   0  5  0  1  0  0  0  0  0  0  0  0
   -4.4969    1.0416   -0.1861 N   0  0  0  1  0  0  0  0  0  0  0  0
    0.1241   -8.3379   -0.1862 O   0  0  0  1  0  0  0  0  0  0  0  0
   -6.3846    2.4717    1.7168 C   0  0  0  1  0  0  0  0  0  0  0  0
   -7.5168    2.6921    2.7082 C   0  0  0  1  0  0  0  0  0  0  0  0
   -2.3394    0.7715    0.2748 C   0  0  0  1  0  0  0  0  0  0  0  0
   -6.7991    1.6621    0.4990 C   0  0  0  1  0  0  0  0  0  0  0  0
   -2.9525   -0.4899    0.2767 C   0  0  0  1  0  0  0  0  0  0  0  0
    0.7465    3.7586    1.9063 C   0  0  0  1  0  0  0  0  0  0  0  0
   -7.1364    3.6155    3.8686 C   0  0  0  1  0  0  0  0  0  0  0  0
   -5.7558    1.6585   -0.6053 C   0  0  0  1  0  0  0  0  0  0  0  0
   -2.2713   -1.8110    0.5455 C   0  0  0  1  0  0  0  0  0  0  0  0
   -8.2611    3.7404    4.8921 C   0  0  0  1  0  0  0  0  0  0  0  0
    0.9168    2.6544    0.8575 C   0  0  0  1  0  0  0  0  0  0  0  0
   -0.2432    3.4010    3.0020 C   0  0  0  1  0  0  0  0  0  0  0  0
   -0.9387    1.0906    0.5231 C   0  0  0  1  0  0  0  0  0  0  0  0
   -0.2615    4.4000    4.1464 C   0  0  0  1  0  0  0  0  0  0  0  0
   -0.3772    2.2578    0.3300 C   0  0  0  1  0  0  0  0  0  0  0  0
   -3.3219    1.7088   -0.0139 C   0  0  0  1  0  0  0  0  0  0  0  0
   -1.2887    4.0699    5.2185 C   0  0  0  1  0  0  0  0  0  0  0  0
   -4.2912   -0.3088   -0.0113 C   0  0  0  1  0  0  0  0  0  0  0  0
   -1.8561   -2.4327   -0.7447 C   0  0  0  1  0  0  0  0  0  0  0  0
   -2.0627   -3.6309   -1.1863 C   0  0  0  1  0  0  0  0  0  0  0  0
   -2.5149   -4.8642   -0.4444 C   0  0  0  1  0  0  0  0  0  0  0  0
   -1.4466    5.1655    6.2590 C   0  0  0  1  0  0  0  0  0  0  0  0
   -1.4295   -5.9325   -0.4607 C   0  0  0  1  0  0  0  0  0  0  0  0
   -1.3583   -6.7408    0.8282 C   0  0  0  1  0  0  0  0  0  0  0  0
   -0.3945   -7.8770    0.8173 C   0  0  0  1  0  0  0  0  0  0  0  0
   -6.9903    4.6305    6.1164 H   0  0  0  1  0  0  0  0  0  0  0  0
   -3.8819    0.9411    5.4516 H   0  0  0  1  0  0  0  0  0  0  0  0
   -4.1160    2.2041    6.6359 H   0  0  0  1  0  0  0  0  0  0  0  0
   -3.5653    2.6060    5.0268 H   0  0  0  1  0  0  0  0  0  0  0  0
   -8.2615    3.9708    8.0742 H   0  0  0  1  0  0  0  0  0  0  0  0
   -9.6933    4.0120    7.0737 H   0  0  0  1  0  0  0  0  0  0  0  0
   -8.8526    5.4951    7.4581 H   0  0  0  1  0  0  0  0  0  0  0  0
    2.1727    3.9851    0.1347 H   0  0  0  1  0  0  0  0  0  0  0  0
   -5.1006    3.8465    4.3150 H   0  0  0  1  0  0  0  0  0  0  0  0
   -5.5930    1.9527    2.2158 H   0  0  0  1  0  0  0  0  0  0  0  0
   -6.0328    3.4264    1.3859 H   0  0  0  1  0  0  0  0  0  0  0  0
   -7.8053    1.7434    3.1101 H   0  0  0  1  0  0  0  0  0  0  0  0
   -8.3445    3.1257    2.1869 H   0  0  0  1  0  0  0  0  0  0  0  0
   -7.7050    2.0765    0.1084 H   0  0  0  1  0  0  0  0  0  0  0  0
   -6.9717    0.6517    0.8059 H   0  0  0  1  0  0  0  0  0  0  0  0
    0.4022    4.6439    1.4138 H   0  0  0  1  0  0  0  0  0  0  0  0
    1.6982    3.9478    2.3573 H   0  0  0  1  0  0  0  0  0  0  0  0
   -7.0108    4.5895    3.4439 H   0  0  0  1  0  0  0  0  0  0  0  0
   -6.1429    1.1138   -1.4410 H   0  0  0  1  0  0  0  0  0  0  0  0
   -5.5617    2.6695   -0.8969 H   0  0  0  1  0  0  0  0  0  0  0  0
   -2.9497   -2.4643    1.0532 H   0  0  0  1  0  0  0  0  0  0  0  0
   -1.4078   -1.6482    1.1561 H   0  0  0  1  0  0  0  0  0  0  0  0
    1.3611    1.8060    1.3348 H   0  0  0  1  0  0  0  0  0  0  0  0
    0.0176    2.4403    3.3944 H   0  0  0  1  0  0  0  0  0  0  0  0
   -1.2227    3.3579    2.5735 H   0  0  0  1  0  0  0  0  0  0  0  0
   -0.3336    0.3259    0.8846 H   0  0  0  1  0  0  0  0  0  0  0  0
   -0.4856    5.3676    3.7484 H   0  0  0  1  0  0  0  0  0  0  0  0
    0.7080    4.4155    4.5988 H   0  0  0  1  0  0  0  0  0  0  0  0
   -0.8963    2.9525   -0.2439 H   0  0  0  1  0  0  0  0  0  0  0  0
   -0.9845    3.1720    5.7147 H   0  0  0  1  0  0  0  0  0  0  0  0
   -2.2352    3.9130    4.7447 H   0  0  0  1  0  0  0  0  0  0  0  0
   -1.3212   -1.8109   -1.3841 H   0  0  0  1  0  0  0  0  0  0  0  0
   -1.8918   -3.7636   -2.2036 H   0  0  0  1  0  0  0  0  0  0  0  0
   -3.3957   -5.2518   -0.9121 H   0  0  0  1  0  0  0  0  0  0  0  0
   -2.7345   -4.6027    0.5697 H   0  0  0  1  0  0  0  0  0  0  0  0
   -2.1095    4.8328    7.0301 H   0  0  0  1  0  0  0  0  0  0  0  0
   -1.8499    6.0416    5.7957 H   0  0  0  1  0  0  0  0  0  0  0  0
   -0.4915    5.3937    6.6840 H   0  0  0  1  0  0  0  0  0  0  0  0
   -0.4847   -5.4540   -0.6137 H   0  0  0  1  0  0  0  0  0  0  0  0
   -1.6256   -6.6030   -1.2712 H   0  0  0  1  0  0  0  0  0  0  0  0
   -2.3330   -7.1366    1.0238 H   0  0  0  1  0  0  0  0  0  0  0  0
   -1.0771   -6.0770    1.6189 H   0  0  0  1  0  0  0  0  0  0  0  0
  1 34  1  0  0  0  0
  2  4  1  0  0  0  0
  3  4  1  0  0  0  0
  4  5  1  0  0  0  0
  4 32  1  0  0  0  0
  6 10  1  0  0  0  0
  6 26  1  0  0  0  0
  6 42  1  0  0  0  0
  7  8  1  0  0  0  0
  7  9  2  0  0  0  0
  7 13  1  0  0  0  0
  8 43  1  0  0  0  0
  8 44  1  0  0  0  0
  8 45  1  0  0  0  0
 10 46  1  0  0  0  0
 10 47  1  0  0  0  0
 10 48  1  0  0  0  0
 11 27  1  0  0  0  0
 11 49  1  0  0  0  0
 12 26  2  0  0  0  0
 13 23  1  0  0  0  0
 13 50  1  0  0  0  0
 14 41  1  0  0  0  0
 15 24  1  0  0  0  0
 15 32  4  0  0  0  0
 15 34  4  0  0  0  0
 16 41  2  0  0  0  0
 17 18  1  0  0  0  0
 17 20  1  0  0  0  0
 17 51  1  0  0  0  0
 17 52  1  0  0  0  0
 18 23  1  0  0  0  0
 18 53  1  0  0  0  0
 18 54  1  0  0  0  0
 19 21  4  0  0  0  0
 19 29  1  0  0  0  0
 19 32  4  0  0  0  0
 20 24  1  0  0  0  0
 20 55  1  0  0  0  0
 20 56  1  0  0  0  0
 21 25  1  0  0  0  0
 21 34  4  0  0  0  0
 22 27  1  0  0  0  0
 22 28  1  0  0  0  0
 22 57  1  0  0  0  0
 22 58  1  0  0  0  0
 23 26  1  0  0  0  0
 23 59  1  0  0  0  0
 24 60  1  0  0  0  0
 24 61  1  0  0  0  0
 25 35  1  0  0  0  0
 25 62  1  0  0  0  0
 25 63  1  0  0  0  0
 27 31  1  0  0  0  0
 27 64  1  0  0  0  0
 28 30  1  0  0  0  0
 28 65  1  0  0  0  0
 28 66  1  0  0  0  0
 29 31  2  0  0  0  0
 29 67  1  0  0  0  0
 30 33  1  0  0  0  0
 30 68  1  0  0  0  0
 30 69  1  0  0  0  0
 31 70  1  0  0  0  0
 33 38  1  0  0  0  0
 33 71  1  0  0  0  0
 33 72  1  0  0  0  0
 35 36  2  0  0  0  0
 35 73  1  0  0  0  0
 36 37  1  0  0  0  0
 36 74  1  0  0  0  0
 37 39  1  0  0  0  0
 37 75  1  0  0  0  0
 37 76  1  0  0  0  0
 38 77  1  0  0  0  0
 38 78  1  0  0  0  0
 38 79  1  0  0  0  0
 39 40  1  0  0  0  0
 39 80  1  0  0  0  0
 39 81  1  0  0  0  0
 40 41  1  0  0  0  0
 40 82  1  0  0  0  0
 40 83  1  0  0  0  0
M  END
> <ConfClashScore>
0 

> <ConfOneFourInteractionScore>
-0.989881 

> <ConfScore>
-0.0852704 

> <ConfScorePBest>
0.00663764 

> <ConfTolerance>
1.96793 

$$$$
9548876
  PyMOL2.2          3D                             0

 83 83  0  0  0  0  0  0  0  0999 V2000
   -5.0222   -1.0400   -0.1139 H   0  0  0  1  0  0  0  0  0  0  0  0
   -2.8189    3.5820    0.7973 H   0  0  0  1  0  0  0  0  0  0  0  0
   -4.1179    3.6023   -0.3709 H   0  0  0  1  0  0  0  0  0  0  0  0
   -3.1647    3.1791   -0.1317 C   0  0  0  1  0  0  0  0  0  0  0  0
   -2.4645    3.4156   -0.9055 H   0  0  0  1  0  0  0  0  0  0  0  0
  -11.6538    1.5347    0.3475 N   0  0  0  1  0  0  0  0  0  0  0  0
  -12.4165    3.8681    2.1027 C   0  0  0  1  0  0  0  0  0  0  0  0
  -13.2393    3.9336    3.3746 C   0  0  0  1  0  0  0  0  0  0  0  0
  -12.8915    4.2208    1.0264 O   0  0  0  1  0  0  0  0  0  0  0  0
  -12.2180    0.5834   -0.5983 C   0  0  0  1  0  0  0  0  0  0  0  0
    0.9485    2.2973    3.2136 O   0  0  0  1  0  0  0  0  0  0  0  0
  -10.8473    2.9273   -1.2119 O   0  0  0  1  0  0  0  0  0  0  0  0
  -11.1623    3.4159    2.1885 N   0  0  0  1  0  0  0  0  0  0  0  0
   -6.7251   -3.0030    5.9846 O   0  5  0  1  0  0  0  0  0  0  0  0
   -4.4759    1.0495   -0.2050 N   0  0  0  1  0  0  0  0  0  0  0  0
   -7.1569   -3.9107    3.9439 O   0  0  0  1  0  0  0  0  0  0  0  0
   -7.9819    2.5684    0.2543 C   0  0  0  1  0  0  0  0  0  0  0  0
   -8.8715    2.8709    1.4447 C   0  0  0  1  0  0  0  0  0  0  0  0
   -2.3292    0.7474    0.2857 C   0  0  0  1  0  0  0  0  0  0  0  0
   -6.6190    2.0290    0.6439 C   0  0  0  1  0  0  0  0  0  0  0  0
   -2.9603   -0.5051    0.2761 C   0  0  0  1  0  0  0  0  0  0  0  0
    2.1844    0.5253    2.3021 C   0  0  0  1  0  0  0  0  0  0  0  0
  -10.2572    3.4131    1.0489 C   0  0  0  1  0  0  0  0  0  0  0  0
   -5.7461    1.6924   -0.5432 C   0  0  0  1  0  0  0  0  0  0  0  0
   -2.2517   -1.8086    0.5595 C   0  0  0  1  0  0  0  0  0  0  0  0
  -10.9233    2.5826   -0.0441 C   0  0  0  1  0  0  0  0  0  0  0  0
    1.0549    1.5267    2.0180 C   0  0  0  1  0  0  0  0  0  0  0  0
    3.4826    1.1875    2.7312 C   0  0  0  1  0  0  0  0  0  0  0  0
   -0.9365    1.0975    0.5475 C   0  0  0  1  0  0  0  0  0  0  0  0
    4.0113    2.1859    1.7195 C   0  0  0  1  0  0  0  0  0  0  0  0
   -0.2528    0.9025    1.6471 C   0  0  0  1  0  0  0  0  0  0  0  0
   -3.2939    1.6993   -0.0147 C   0  0  0  1  0  0  0  0  0  0  0  0
    5.3432    2.8277    2.0686 C   0  0  0  1  0  0  0  0  0  0  0  0
   -4.2921   -0.3040   -0.0304 C   0  0  0  1  0  0  0  0  0  0  0  0
   -1.5555   -1.7979    1.8832 C   0  0  0  1  0  0  0  0  0  0  0  0
   -2.1494   -1.6229    3.0443 C   0  0  0  1  0  0  0  0  0  0  0  0
   -3.5814   -1.2291    3.2217 C   0  0  0  1  0  0  0  0  0  0  0  0
    5.8131    3.8368    1.0379 C   0  0  0  1  0  0  0  0  0  0  0  0
   -4.4772   -2.2933    3.8056 C   0  0  0  1  0  0  0  0  0  0  0  0
   -5.9073   -1.8624    4.0876 C   0  0  0  1  0  0  0  0  0  0  0  0
   -6.6584   -3.0309    4.6265 C   0  0  0  1  0  0  0  0  0  0  0  0
  -11.8154    1.4021    1.3050 H   0  0  0  1  0  0  0  0  0  0  0  0
  -13.9857    4.6943    3.2784 H   0  0  0  1  0  0  0  0  0  0  0  0
  -12.6000    4.1641    4.2011 H   0  0  0  1  0  0  0  0  0  0  0  0
  -13.7128    2.9888    3.5420 H   0  0  0  1  0  0  0  0  0  0  0  0
  -13.2484    0.8167   -0.7679 H   0  0  0  1  0  0  0  0  0  0  0  0
  -12.1376   -0.4061   -0.1993 H   0  0  0  1  0  0  0  0  0  0  0  0
  -11.6828    0.6403   -1.5231 H   0  0  0  1  0  0  0  0  0  0  0  0
    1.5924    3.0090    3.1945 H   0  0  0  1  0  0  0  0  0  0  0  0
  -10.8405    3.0743    3.0489 H   0  0  0  1  0  0  0  0  0  0  0  0
   -7.8427    3.4710   -0.3033 H   0  0  0  1  0  0  0  0  0  0  0  0
   -8.4717    1.8415   -0.3593 H   0  0  0  1  0  0  0  0  0  0  0  0
   -8.3836    3.6008    2.0561 H   0  0  0  1  0  0  0  0  0  0  0  0
   -9.0073    1.9692    2.0045 H   0  0  0  1  0  0  0  0  0  0  0  0
   -6.7589    1.1413    1.2247 H   0  0  0  1  0  0  0  0  0  0  0  0
   -6.1183    2.7673    1.2348 H   0  0  0  1  0  0  0  0  0  0  0  0
    2.3694   -0.0389    1.4120 H   0  0  0  1  0  0  0  0  0  0  0  0
    1.8654   -0.1334    3.0827 H   0  0  0  1  0  0  0  0  0  0  0  0
  -10.1362    4.4133    0.6885 H   0  0  0  1  0  0  0  0  0  0  0  0
   -6.2937    1.0323   -1.1830 H   0  0  0  1  0  0  0  0  0  0  0  0
   -5.5309    2.6004   -1.0667 H   0  0  0  1  0  0  0  0  0  0  0  0
   -1.5275   -1.9810   -0.2091 H   0  0  0  1  0  0  0  0  0  0  0  0
   -2.9720   -2.5999    0.5556 H   0  0  0  1  0  0  0  0  0  0  0  0
    1.3675    2.1587    1.2132 H   0  0  0  1  0  0  0  0  0  0  0  0
    4.2207    0.4261    2.8741 H   0  0  0  1  0  0  0  0  0  0  0  0
    3.3132    1.6988    3.6558 H   0  0  0  1  0  0  0  0  0  0  0  0
   -0.4258    1.5570   -0.2333 H   0  0  0  1  0  0  0  0  0  0  0  0
    3.2864    2.9662    1.6167 H   0  0  0  1  0  0  0  0  0  0  0  0
    4.1249    1.6786    0.7843 H   0  0  0  1  0  0  0  0  0  0  0  0
   -0.6636    0.2420    2.3375 H   0  0  0  1  0  0  0  0  0  0  0  0
    6.0806    2.0566    2.1491 H   0  0  0  1  0  0  0  0  0  0  0  0
    5.2433    3.3260    3.0102 H   0  0  0  1  0  0  0  0  0  0  0  0
   -0.5252   -1.9394    1.8862 H   0  0  0  1  0  0  0  0  0  0  0  0
   -1.5807   -1.7693    3.9027 H   0  0  0  1  0  0  0  0  0  0  0  0
   -3.9709   -0.9596    2.2623 H   0  0  0  1  0  0  0  0  0  0  0  0
   -3.6120   -0.3792    3.8711 H   0  0  0  1  0  0  0  0  0  0  0  0
    5.0924    4.6231    0.9534 H   0  0  0  1  0  0  0  0  0  0  0  0
    5.9250    3.3526    0.0903 H   0  0  0  1  0  0  0  0  0  0  0  0
    6.7534    4.2463    1.3429 H   0  0  0  1  0  0  0  0  0  0  0  0
   -4.0434   -2.6197    4.7276 H   0  0  0  1  0  0  0  0  0  0  0  0
   -4.5092   -3.1114    3.1166 H   0  0  0  1  0  0  0  0  0  0  0  0
   -6.3671   -1.5249    3.1823 H   0  0  0  1  0  0  0  0  0  0  0  0
   -5.9097   -1.0699    4.8064 H   0  0  0  1  0  0  0  0  0  0  0  0
  1 34  1  0  0  0  0
  2  4  1  0  0  0  0
  3  4  1  0  0  0  0
  4  5  1  0  0  0  0
  4 32  1  0  0  0  0
  6 10  1  0  0  0  0
  6 26  1  0  0  0  0
  6 42  1  0  0  0  0
  7  8  1  0  0  0  0
  7  9  2  0  0  0  0
  7 13  1  0  0  0  0
  8 43  1  0  0  0  0
  8 44  1  0  0  0  0
  8 45  1  0  0  0  0
 10 46  1  0  0  0  0
 10 47  1  0  0  0  0
 10 48  1  0  0  0  0
 11 27  1  0  0  0  0
 11 49  1  0  0  0  0
 12 26  2  0  0  0  0
 13 23  1  0  0  0  0
 13 50  1  0  0  0  0
 14 41  1  0  0  0  0
 15 24  1  0  0  0  0
 15 32  4  0  0  0  0
 15 34  4  0  0  0  0
 16 41  2  0  0  0  0
 17 18  1  0  0  0  0
 17 20  1  0  0  0  0
 17 51  1  0  0  0  0
 17 52  1  0  0  0  0
 18 23  1  0  0  0  0
 18 53  1  0  0  0  0
 18 54  1  0  0  0  0
 19 21  4  0  0  0  0
 19 29  1  0  0  0  0
 19 32  4  0  0  0  0
 20 24  1  0  0  0  0
 20 55  1  0  0  0  0
 20 56  1  0  0  0  0
 21 25  1  0  0  0  0
 21 34  4  0  0  0  0
 22 27  1  0  0  0  0
 22 28  1  0  0  0  0
 22 57  1  0  0  0  0
 22 58  1  0  0  0  0
 23 26  1  0  0  0  0
 23 59  1  0  0  0  0
 24 60  1  0  0  0  0
 24 61  1  0  0  0  0
 25 35  1  0  0  0  0
 25 62  1  0  0  0  0
 25 63  1  0  0  0  0
 27 31  1  0  0  0  0
 27 64  1  0  0  0  0
 28 30  1  0  0  0  0
 28 65  1  0  0  0  0
 28 66  1  0  0  0  0
 29 31  2  0  0  0  0
 29 67  1  0  0  0  0
 30 33  1  0  0  0  0
 30 68  1  0  0  0  0
 30 69  1  0  0  0  0
 31 70  1  0  0  0  0
 33 38  1  0  0  0  0
 33 71  1  0  0  0  0
 33 72  1  0  0  0  0
 35 36  2  0  0  0  0
 35 73  1  0  0  0  0
 36 37  1  0  0  0  0
 36 74  1  0  0  0  0
 37 39  1  0  0  0  0
 37 75  1  0  0  0  0
 37 76  1  0  0  0  0
 38 77  1  0  0  0  0
 38 78  1  0  0  0  0
 38 79  1  0  0  0  0
 39 40  1  0  0  0  0
 39 80  1  0  0  0  0
 39 81  1  0  0  0  0
 40 41  1  0  0  0  0
 40 82  1  0  0  0  0
 40 83  1  0  0  0  0
M  END
> <ConfClashScore>
0 

> <ConfOneFourInteractionScore>
-0.985562 

> <ConfScore>
-0.0830339 

> <ConfScorePBest>
0.00660916 

> <ConfTolerance>
1.69702 

$$$$
9548876
  PyMOL2.2          3D                             0

 83 83  0  0  0  0  0  0  0  0999 V2000
   -4.9978   -1.0488   -0.1377 H   0  0  0  1  0  0  0  0  0  0  0  0
   -3.5442    3.6757    0.7286 H   0  0  0  1  0  0  0  0  0  0  0  0
   -3.7573    3.4859   -0.9951 H   0  0  0  1  0  0  0  0  0  0  0  0
   -3.1802    3.1806   -0.1474 C   0  0  0  1  0  0  0  0  0  0  0  0
   -2.1536    3.4392   -0.3023 H   0  0  0  1  0  0  0  0  0  0  0  0
   -7.3535    1.1481   -7.1101 N   0  0  0  1  0  0  0  0  0  0  0  0
   -4.7021   -1.8421   -4.8301 C   0  0  0  1  0  0  0  0  0  0  0  0
   -3.3797   -2.5731   -4.8847 C   0  0  0  1  0  0  0  0  0  0  0  0
   -5.6936   -2.3683   -4.3263 O   0  0  0  1  0  0  0  0  0  0  0  0
   -7.6660    1.7633   -8.3914 C   0  0  0  1  0  0  0  0  0  0  0  0
    1.6552    1.9045    0.5911 O   0  0  0  1  0  0  0  0  0  0  0  0
   -5.1706    0.8020   -7.5594 O   0  0  0  1  0  0  0  0  0  0  0  0
   -4.7609   -0.6046   -5.3469 N   0  0  0  1  0  0  0  0  0  0  0  0
   -5.1556   -5.2734    0.2415 O   0  5  0  1  0  0  0  0  0  0  0  0
   -4.4736    1.0479   -0.1802 N   0  0  0  1  0  0  0  0  0  0  0  0
   -4.0576   -7.2510    0.5965 O   0  0  0  1  0  0  0  0  0  0  0  0
   -5.9768    0.9835   -2.9317 C   0  0  0  1  0  0  0  0  0  0  0  0
   -5.8905    1.4096   -4.3847 C   0  0  0  1  0  0  0  0  0  0  0  0
   -2.3256    0.7578    0.3120 C   0  0  0  1  0  0  0  0  0  0  0  0
   -5.8049    2.1263   -1.9621 C   0  0  0  1  0  0  0  0  0  0  0  0
   -2.9432   -0.5007    0.2721 C   0  0  0  1  0  0  0  0  0  0  0  0
    2.1169    0.0737    2.1106 C   0  0  0  1  0  0  0  0  0  0  0  0
   -5.9502    0.2340   -5.3676 C   0  0  0  1  0  0  0  0  0  0  0  0
   -5.7226    1.7365   -0.5070 C   0  0  0  1  0  0  0  0  0  0  0  0
   -2.2717   -1.8307    0.5204 C   0  0  0  1  0  0  0  0  0  0  0  0
   -6.1225    0.7316   -6.7996 C   0  0  0  1  0  0  0  0  0  0  0  0
    1.4749    0.5139    0.7841 C   0  0  0  1  0  0  0  0  0  0  0  0
    3.5449    0.5523    2.1984 C   0  0  0  1  0  0  0  0  0  0  0  0
   -0.9284    1.0651    0.5929 C   0  0  0  1  0  0  0  0  0  0  0  0
    4.4733    0.0462    1.1051 C   0  0  0  1  0  0  0  0  0  0  0  0
    0.0194    0.1811    0.8203 C   0  0  0  1  0  0  0  0  0  0  0  0
   -3.2994    1.7059    0.0291 C   0  0  0  1  0  0  0  0  0  0  0  0
    5.9192    0.3892    1.4246 C   0  0  0  1  0  0  0  0  0  0  0  0
   -4.2760   -0.3071   -0.0350 C   0  0  0  1  0  0  0  0  0  0  0  0
   -1.2380   -2.1446   -0.5141 C   0  0  0  1  0  0  0  0  0  0  0  0
   -1.1891   -3.2516   -1.2119 C   0  0  0  1  0  0  0  0  0  0  0  0
   -1.9481   -4.5096   -0.8845 C   0  0  0  1  0  0  0  0  0  0  0  0
    6.8557   -0.1996    0.3822 C   0  0  0  1  0  0  0  0  0  0  0  0
   -3.1320   -4.8104   -1.7891 C   0  0  0  1  0  0  0  0  0  0  0  0
   -3.7925   -6.1468   -1.4927 C   0  0  0  1  0  0  0  0  0  0  0  0
   -4.3359   -6.2988   -0.1136 C   0  0  0  1  0  0  0  0  0  0  0  0
   -8.0709    1.0355   -6.4520 H   0  0  0  1  0  0  0  0  0  0  0  0
   -2.5912   -1.9063   -4.6044 H   0  0  0  1  0  0  0  0  0  0  0  0
   -3.2095   -2.9280   -5.8797 H   0  0  0  1  0  0  0  0  0  0  0  0
   -3.4026   -3.4022   -4.2087 H   0  0  0  1  0  0  0  0  0  0  0  0
   -7.3355    2.7810   -8.3891 H   0  0  0  1  0  0  0  0  0  0  0  0
   -8.7232    1.7322   -8.5532 H   0  0  0  1  0  0  0  0  0  0  0  0
   -7.1690    1.2289   -9.1739 H   0  0  0  1  0  0  0  0  0  0  0  0
    1.7319    2.0904   -0.3476 H   0  0  0  1  0  0  0  0  0  0  0  0
   -3.9413   -0.2382   -5.7399 H   0  0  0  1  0  0  0  0  0  0  0  0
   -5.2101    0.2610   -2.7440 H   0  0  0  1  0  0  0  0  0  0  0  0
   -6.9355    0.5384   -2.7651 H   0  0  0  1  0  0  0  0  0  0  0  0
   -4.9663    1.9283   -4.5318 H   0  0  0  1  0  0  0  0  0  0  0  0
   -6.7071    2.0686   -4.5940 H   0  0  0  1  0  0  0  0  0  0  0  0
   -6.6386    2.7866   -2.0797 H   0  0  0  1  0  0  0  0  0  0  0  0
   -4.9024    2.6416   -2.2167 H   0  0  0  1  0  0  0  0  0  0  0  0
    2.1005   -0.9945    2.1709 H   0  0  0  1  0  0  0  0  0  0  0  0
    1.5581    0.4860    2.9247 H   0  0  0  1  0  0  0  0  0  0  0  0
   -6.8023   -0.3631   -5.1181 H   0  0  0  1  0  0  0  0  0  0  0  0
   -5.7921    2.6221    0.0896 H   0  0  0  1  0  0  0  0  0  0  0  0
   -6.5420    1.0872   -0.2791 H   0  0  0  1  0  0  0  0  0  0  0  0
   -3.0156   -2.5997    0.5082 H   0  0  0  1  0  0  0  0  0  0  0  0
   -1.8007   -1.8046    1.4809 H   0  0  0  1  0  0  0  0  0  0  0  0
    1.9332   -0.0326   -0.0135 H   0  0  0  1  0  0  0  0  0  0  0  0
    3.9414    0.2353    3.1403 H   0  0  0  1  0  0  0  0  0  0  0  0
    3.5374    1.6214    2.1555 H   0  0  0  1  0  0  0  0  0  0  0  0
   -0.6576    2.0690    0.6153 H   0  0  0  1  0  0  0  0  0  0  0  0
    4.2019    0.5016    0.1757 H   0  0  0  1  0  0  0  0  0  0  0  0
    4.3743   -1.0162    1.0247 H   0  0  0  1  0  0  0  0  0  0  0  0
   -0.2588   -0.7975    1.0359 H   0  0  0  1  0  0  0  0  0  0  0  0
    6.1699   -0.0083    2.3859 H   0  0  0  1  0  0  0  0  0  0  0  0
    6.0329    1.4531    1.4374 H   0  0  0  1  0  0  0  0  0  0  0  0
   -0.5034   -1.4303   -0.6926 H   0  0  0  1  0  0  0  0  0  0  0  0
   -0.5805   -3.2624   -2.0552 H   0  0  0  1  0  0  0  0  0  0  0  0
   -2.3120   -4.4241    0.1180 H   0  0  0  1  0  0  0  0  0  0  0  0
   -1.2667   -5.3322   -0.9482 H   0  0  0  1  0  0  0  0  0  0  0  0
    7.7072    0.4379    0.2663 H   0  0  0  1  0  0  0  0  0  0  0  0
    6.3419   -0.2815   -0.5528 H   0  0  0  1  0  0  0  0  0  0  0  0
    7.1772   -1.1696    0.6992 H   0  0  0  1  0  0  0  0  0  0  0  0
   -2.7907   -4.8181   -2.8032 H   0  0  0  1  0  0  0  0  0  0  0  0
   -3.8602   -4.0366   -1.6632 H   0  0  0  1  0  0  0  0  0  0  0  0
   -3.0651   -6.9161   -1.6475 H   0  0  0  1  0  0  0  0  0  0  0  0
   -4.6008   -6.2756   -2.1819 H   0  0  0  1  0  0  0  0  0  0  0  0
  1 34  1  0  0  0  0
  2  4  1  0  0  0  0
  3  4  1  0  0  0  0
  4  5  1  0  0  0  0
  4 32  1  0  0  0  0
  6 10  1  0  0  0  0
  6 26  1  0  0  0  0
  6 42  1  0  0  0  0
  7  8  1  0  0  0  0
  7  9  2  0  0  0  0
  7 13  1  0  0  0  0
  8 43  1  0  0  0  0
  8 44  1  0  0  0  0
  8 45  1  0  0  0  0
 10 46  1  0  0  0  0
 10 47  1  0  0  0  0
 10 48  1  0  0  0  0
 11 27  1  0  0  0  0
 11 49  1  0  0  0  0
 12 26  2  0  0  0  0
 13 23  1  0  0  0  0
 13 50  1  0  0  0  0
 14 41  1  0  0  0  0
 15 24  1  0  0  0  0
 15 32  4  0  0  0  0
 15 34  4  0  0  0  0
 16 41  2  0  0  0  0
 17 18  1  0  0  0  0
 17 20  1  0  0  0  0
 17 51  1  0  0  0  0
 17 52  1  0  0  0  0
 18 23  1  0  0  0  0
 18 53  1  0  0  0  0
 18 54  1  0  0  0  0
 19 21  4  0  0  0  0
 19 29  1  0  0  0  0
 19 32  4  0  0  0  0
 20 24  1  0  0  0  0
 20 55  1  0  0  0  0
 20 56  1  0  0  0  0
 21 25  1  0  0  0  0
 21 34  4  0  0  0  0
 22 27  1  0  0  0  0
 22 28  1  0  0  0  0
 22 57  1  0  0  0  0
 22 58  1  0  0  0  0
 23 26  1  0  0  0  0
 23 59  1  0  0  0  0
 24 60  1  0  0  0  0
 24 61  1  0  0  0  0
 25 35  1  0  0  0  0
 25 62  1  0  0  0  0
 25 63  1  0  0  0  0
 27 31  1  0  0  0  0
 27 64  1  0  0  0  0
 28 30  1  0  0  0  0
 28 65  1  0  0  0  0
 28 66  1  0  0  0  0
 29 31  2  0  0  0  0
 29 67  1  0  0  0  0
 30 33  1  0  0  0  0
 30 68  1  0  0  0  0
 30 69  1  0  0  0  0
 31 70  1  0  0  0  0
 33 38  1  0  0  0  0
 33 71  1  0  0  0  0
 33 72  1  0  0  0  0
 35 36  2  0  0  0  0
 35 73  1  0  0  0  0
 36 37  1  0  0  0  0
 36 74  1  0  0  0  0
 37 39  1  0  0  0  0
 37 75  1  0  0  0  0
 37 76  1  0  0  0  0
 38 77  1  0  0  0  0
 38 78  1  0  0  0  0
 38 79  1  0  0  0  0
 39 40  1  0  0  0  0
 39 80  1  0  0  0  0
 39 81  1  0  0  0  0
 40 41  1  0  0  0  0
 40 82  1  0  0  0  0
 40 83  1  0  0  0  0
M  END
> <ConfClashScore>
0 

> <ConfOneFourInteractionScore>
-0.99729 

> <ConfScore>
-0.0824405 

> <ConfScorePBest>
0.00658068 

> <ConfTolerance>
1.85611 

$$$$
9548876
  PyMOL2.2          3D                             0

 83 83  0  0  0  0  0  0  0  0999 V2000
   -5.0144   -1.0250   -0.1057 H   0  0  0  1  0  0  0  0  0  0  0  0
   -4.0367    3.5475   -0.6768 H   0  0  0  1  0  0  0  0  0  0  0  0
   -2.2926    3.4446   -0.6769 H   0  0  0  1  0  0  0  0  0  0  0  0
   -3.1829    3.1857   -0.1429 C   0  0  0  1  0  0  0  0  0  0  0  0
   -3.1571    3.6290    0.8306 H   0  0  0  1  0  0  0  0  0  0  0  0
   -9.6046    2.1364   -6.5520 N   0  0  0  1  0  0  0  0  0  0  0  0
  -11.1926    2.0897   -3.9710 C   0  0  0  1  0  0  0  0  0  0  0  0
  -12.1261    1.1276   -3.2917 C   0  0  0  1  0  0  0  0  0  0  0  0
  -11.6246    3.0848   -4.5514 O   0  0  0  1  0  0  0  0  0  0  0  0
   -9.9338    2.3151   -7.9583 C   0  0  0  1  0  0  0  0  0  0  0  0
    1.8554    2.1811   -1.0100 O   0  0  0  1  0  0  0  0  0  0  0  0
   -8.5491    4.1158   -6.3182 O   0  0  0  1  0  0  0  0  0  0  0  0
   -9.8824    1.8320   -3.9252 N   0  0  0  1  0  0  0  0  0  0  0  0
   -7.5905   -3.2968    4.7818 O   0  5  0  1  0  0  0  0  0  0  0  0
   -4.4555    1.0609   -0.2009 N   0  0  0  1  0  0  0  0  0  0  0  0
   -6.5374   -5.3140    4.5459 O   0  0  0  1  0  0  0  0  0  0  0  0
   -7.2529    2.4458   -2.4160 C   0  0  0  1  0  0  0  0  0  0  0  0
   -7.4671    2.4061   -3.9213 C   0  0  0  1  0  0  0  0  0  0  0  0
   -2.3108    0.7470    0.2913 C   0  0  0  1  0  0  0  0  0  0  0  0
   -6.0058    1.6882   -2.0332 C   0  0  0  1  0  0  0  0  0  0  0  0
   -2.9495   -0.5017    0.2840 C   0  0  0  1  0  0  0  0  0  0  0  0
    1.9283    3.3191    1.0949 C   0  0  0  1  0  0  0  0  0  0  0  0
   -8.8845    2.8034   -4.3435 C   0  0  0  1  0  0  0  0  0  0  0  0
   -5.7216    1.7108   -0.5410 C   0  0  0  1  0  0  0  0  0  0  0  0
   -2.2974   -1.8402    0.5633 C   0  0  0  1  0  0  0  0  0  0  0  0
   -8.9710    3.0746   -5.8425 C   0  0  0  1  0  0  0  0  0  0  0  0
    1.3169    2.1350    0.3175 C   0  0  0  1  0  0  0  0  0  0  0  0
    1.4567    3.2432    2.5260 C   0  0  0  1  0  0  0  0  0  0  0  0
   -0.9055    1.0380    0.5604 C   0  0  0  1  0  0  0  0  0  0  0  0
    2.0792    4.2538    3.4741 C   0  0  0  1  0  0  0  0  0  0  0  0
   -0.1773    2.0887    0.2667 C   0  0  0  1  0  0  0  0  0  0  0  0
   -3.2697    1.7040   -0.0115 C   0  0  0  1  0  0  0  0  0  0  0  0
    1.4190    4.1869    4.8427 C   0  0  0  1  0  0  0  0  0  0  0  0
   -4.2799   -0.2933   -0.0234 C   0  0  0  1  0  0  0  0  0  0  0  0
   -2.0423   -2.1921    2.0091 C   0  0  0  1  0  0  0  0  0  0  0  0
   -2.6394   -3.2734    2.4504 C   0  0  0  1  0  0  0  0  0  0  0  0
   -3.7709   -3.9781    1.7510 C   0  0  0  1  0  0  0  0  0  0  0  0
    2.1660    5.0526    5.8442 C   0  0  0  1  0  0  0  0  0  0  0  0
   -4.7755   -4.5960    2.7148 C   0  0  0  1  0  0  0  0  0  0  0  0
   -5.6608   -3.5246    3.3302 C   0  0  0  1  0  0  0  0  0  0  0  0
   -6.6395   -4.1282    4.2778 C   0  0  0  1  0  0  0  0  0  0  0  0
   -9.8564    1.2987   -6.1101 H   0  0  0  1  0  0  0  0  0  0  0  0
  -12.4754    0.4073   -4.0017 H   0  0  0  1  0  0  0  0  0  0  0  0
  -12.9597    1.6640   -2.8888 H   0  0  0  1  0  0  0  0  0  0  0  0
  -11.6080    0.6264   -2.5010 H   0  0  0  1  0  0  0  0  0  0  0  0
  -10.0935    3.3540   -8.1585 H   0  0  0  1  0  0  0  0  0  0  0  0
  -10.8234    1.7670   -8.1885 H   0  0  0  1  0  0  0  0  0  0  0  0
   -9.1266    1.9558   -8.5618 H   0  0  0  1  0  0  0  0  0  0  0  0
    1.2218    2.5979   -1.5986 H   0  0  0  1  0  0  0  0  0  0  0  0
   -9.5835    0.9578   -3.5983 H   0  0  0  1  0  0  0  0  0  0  0  0
   -8.0963    2.0018   -1.9298 H   0  0  0  1  0  0  0  0  0  0  0  0
   -7.1550    3.4641   -2.1023 H   0  0  0  1  0  0  0  0  0  0  0  0
   -7.2774    1.4106   -4.2648 H   0  0  0  1  0  0  0  0  0  0  0  0
   -6.7748    3.0804   -4.3804 H   0  0  0  1  0  0  0  0  0  0  0  0
   -5.1732    2.1253   -2.5437 H   0  0  0  1  0  0  0  0  0  0  0  0
   -6.1193    0.6699   -2.3416 H   0  0  0  1  0  0  0  0  0  0  0  0
    1.6087    4.2419    0.6577 H   0  0  0  1  0  0  0  0  0  0  0  0
    2.9961    3.2596    1.0628 H   0  0  0  1  0  0  0  0  0  0  0  0
   -9.1048    3.7268   -3.8498 H   0  0  0  1  0  0  0  0  0  0  0  0
   -5.6828    2.7291   -0.2147 H   0  0  0  1  0  0  0  0  0  0  0  0
   -6.5149    1.2030   -0.0332 H   0  0  0  1  0  0  0  0  0  0  0  0
   -1.3545   -1.8511    0.0577 H   0  0  0  1  0  0  0  0  0  0  0  0
   -2.9310   -2.5991    0.1539 H   0  0  0  1  0  0  0  0  0  0  0  0
    1.6531    1.2366    0.7915 H   0  0  0  1  0  0  0  0  0  0  0  0
    1.6800    2.2640    2.8950 H   0  0  0  1  0  0  0  0  0  0  0  0
    0.3974    3.3943    2.5323 H   0  0  0  1  0  0  0  0  0  0  0  0
   -0.3973    0.2871    1.0699 H   0  0  0  1  0  0  0  0  0  0  0  0
    1.9528    5.2370    3.0713 H   0  0  0  1  0  0  0  0  0  0  0  0
    3.1229    4.0415    3.5773 H   0  0  0  1  0  0  0  0  0  0  0  0
   -0.6760    2.9541   -0.0231 H   0  0  0  1  0  0  0  0  0  0  0  0
    1.4220    3.1729    5.1845 H   0  0  0  1  0  0  0  0  0  0  0  0
    0.4100    4.5339    4.7628 H   0  0  0  1  0  0  0  0  0  0  0  0
   -1.4302   -1.6124    2.6181 H   0  0  0  1  0  0  0  0  0  0  0  0
   -2.3063   -3.6737    3.3506 H   0  0  0  1  0  0  0  0  0  0  0  0
   -3.3622   -4.7558    1.1403 H   0  0  0  1  0  0  0  0  0  0  0  0
   -4.2828   -3.2703    1.1330 H   0  0  0  1  0  0  0  0  0  0  0  0
    2.8144    5.7245    5.3217 H   0  0  0  1  0  0  0  0  0  0  0  0
    2.7461    4.4287    6.4917 H   0  0  0  1  0  0  0  0  0  0  0  0
    1.4634    5.6138    6.4240 H   0  0  0  1  0  0  0  0  0  0  0  0
   -4.2471   -5.1047    3.4939 H   0  0  0  1  0  0  0  0  0  0  0  0
   -5.3877   -5.2944    2.1834 H   0  0  0  1  0  0  0  0  0  0  0  0
   -6.1926   -3.0190    2.5515 H   0  0  0  1  0  0  0  0  0  0  0  0
   -5.0482   -2.8237    3.8578 H   0  0  0  1  0  0  0  0  0  0  0  0
  1 34  1  0  0  0  0
  2  4  1  0  0  0  0
  3  4  1  0  0  0  0
  4  5  1  0  0  0  0
  4 32  1  0  0  0  0
  6 10  1  0  0  0  0
  6 26  1  0  0  0  0
  6 42  1  0  0  0  0
  7  8  1  0  0  0  0
  7  9  2  0  0  0  0
  7 13  1  0  0  0  0
  8 43  1  0  0  0  0
  8 44  1  0  0  0  0
  8 45  1  0  0  0  0
 10 46  1  0  0  0  0
 10 47  1  0  0  0  0
 10 48  1  0  0  0  0
 11 27  1  0  0  0  0
 11 49  1  0  0  0  0
 12 26  2  0  0  0  0
 13 23  1  0  0  0  0
 13 50  1  0  0  0  0
 14 41  1  0  0  0  0
 15 24  1  0  0  0  0
 15 32  4  0  0  0  0
 15 34  4  0  0  0  0
 16 41  2  0  0  0  0
 17 18  1  0  0  0  0
 17 20  1  0  0  0  0
 17 51  1  0  0  0  0
 17 52  1  0  0  0  0
 18 23  1  0  0  0  0
 18 53  1  0  0  0  0
 18 54  1  0  0  0  0
 19 21  4  0  0  0  0
 19 29  1  0  0  0  0
 19 32  4  0  0  0  0
 20 24  1  0  0  0  0
 20 55  1  0  0  0  0
 20 56  1  0  0  0  0
 21 25  1  0  0  0  0
 21 34  4  0  0  0  0
 22 27  1  0  0  0  0
 22 28  1  0  0  0  0
 22 57  1  0  0  0  0
 22 58  1  0  0  0  0
 23 26  1  0  0  0  0
 23 59  1  0  0  0  0
 24 60  1  0  0  0  0
 24 61  1  0  0  0  0
 25 35  1  0  0  0  0
 25 62  1  0  0  0  0
 25 63  1  0  0  0  0
 27 31  1  0  0  0  0
 27 64  1  0  0  0  0
 28 30  1  0  0  0  0
 28 65  1  0  0  0  0
 28 66  1  0  0  0  0
 29 31  2  0  0  0  0
 29 67  1  0  0  0  0
 30 33  1  0  0  0  0
 30 68  1  0  0  0  0
 30 69  1  0  0  0  0
 31 70  1  0  0  0  0
 33 38  1  0  0  0  0
 33 71  1  0  0  0  0
 33 72  1  0  0  0  0
 35 36  2  0  0  0  0
 35 73  1  0  0  0  0
 36 37  1  0  0  0  0
 36 74  1  0  0  0  0
 37 39  1  0  0  0  0
 37 75  1  0  0  0  0
 37 76  1  0  0  0  0
 38 77  1  0  0  0  0
 38 78  1  0  0  0  0
 38 79  1  0  0  0  0
 39 40  1  0  0  0  0
 39 80  1  0  0  0  0
 39 81  1  0  0  0  0
 40 41  1  0  0  0  0
 40 82  1  0  0  0  0
 40 83  1  0  0  0  0
M  END
> <ConfClashScore>
0 

> <ConfOneFourInteractionScore>
-0.982895 

> <ConfScore>
-0.0797998 

> <ConfScorePBest>
0.0065522 

> <ConfTolerance>
1.69817 

$$$$
9548876
  PyMOL2.2          3D                             0

 83 83  0  0  0  0  0  0  0  0999 V2000
   -4.9946   -1.0383   -0.1249 H   0  0  0  1  0  0  0  0  0  0  0  0
   -2.6345    3.5753    0.7150 H   0  0  0  1  0  0  0  0  0  0  0  0
   -4.1513    3.6298   -0.1503 H   0  0  0  1  0  0  0  0  0  0  0  0
   -3.1732    3.1965   -0.1283 C   0  0  0  1  0  0  0  0  0  0  0  0
   -2.6506    3.4482   -1.0274 H   0  0  0  1  0  0  0  0  0  0  0  0
   -9.6045    0.9037   -5.0592 N   0  0  0  1  0  0  0  0  0  0  0  0
   -6.8845    0.7413   -6.8241 C   0  0  0  1  0  0  0  0  0  0  0  0
   -6.6567    1.0631   -8.2882 C   0  0  0  1  0  0  0  0  0  0  0  0
   -6.8186   -0.4141   -6.4065 O   0  0  0  1  0  0  0  0  0  0  0  0
  -10.9152    0.3267   -4.8005 C   0  0  0  1  0  0  0  0  0  0  0  0
    2.0005    2.5998    0.0091 O   0  0  0  1  0  0  0  0  0  0  0  0
   -8.4839   -0.0902   -3.3926 O   0  0  0  1  0  0  0  0  0  0  0  0
   -7.1581    1.7897   -6.0326 N   0  0  0  1  0  0  0  0  0  0  0  0
   -5.3256   -3.4881   -1.1721 O   0  5  0  1  0  0  0  0  0  0  0  0
   -4.4667    1.0562   -0.2063 N   0  0  0  1  0  0  0  0  0  0  0  0
   -5.3016   -5.7776   -1.1797 O   0  0  0  1  0  0  0  0  0  0  0  0
   -7.1739    2.7587   -2.3282 C   0  0  0  1  0  0  0  0  0  0  0  0
   -7.3273    2.9282   -3.8319 C   0  0  0  1  0  0  0  0  0  0  0  0
   -2.3142    0.7695    0.2682 C   0  0  0  1  0  0  0  0  0  0  0  0
   -5.8820    2.0294   -1.9972 C   0  0  0  1  0  0  0  0  0  0  0  0
   -2.9347   -0.4883    0.2548 C   0  0  0  1  0  0  0  0  0  0  0  0
    0.9491    3.8296    1.8232 C   0  0  0  1  0  0  0  0  0  0  0  0
   -7.3089    1.6020   -4.5974 C   0  0  0  1  0  0  0  0  0  0  0  0
   -5.7683    1.6398   -0.5324 C   0  0  0  1  0  0  0  0  0  0  0  0
   -2.3226   -1.8234    0.6072 C   0  0  0  1  0  0  0  0  0  0  0  0
   -8.5327    0.7491   -4.2767 C   0  0  0  1  0  0  0  0  0  0  0  0
    1.0325    2.5029    1.0495 C   0  0  0  1  0  0  0  0  0  0  0  0
   -0.1217    3.8927    2.9002 C   0  0  0  1  0  0  0  0  0  0  0  0
   -0.9040    1.0236    0.5365 C   0  0  0  1  0  0  0  0  0  0  0  0
   -0.1634    5.2248    3.6311 C   0  0  0  1  0  0  0  0  0  0  0  0
   -0.3143    2.1937    0.4769 C   0  0  0  1  0  0  0  0  0  0  0  0
   -3.2890    1.7150   -0.0198 C   0  0  0  1  0  0  0  0  0  0  0  0
   -1.2318    5.2873    4.7076 C   0  0  0  1  0  0  0  0  0  0  0  0
   -4.2702   -0.2967   -0.0416 C   0  0  0  1  0  0  0  0  0  0  0  0
   -1.2419   -2.2771   -0.3221 C   0  0  0  1  0  0  0  0  0  0  0  0
   -1.0787   -3.4652   -0.8069 C   0  0  0  1  0  0  0  0  0  0  0  0
   -1.8597   -4.7246   -0.5425 C   0  0  0  1  0  0  0  0  0  0  0  0
   -1.3847    6.6670    5.3250 C   0  0  0  1  0  0  0  0  0  0  0  0
   -2.4197   -5.3546   -1.8074 C   0  0  0  1  0  0  0  0  0  0  0  0
   -3.6137   -4.6054   -2.3760 C   0  0  0  1  0  0  0  0  0  0  0  0
   -4.8280   -4.7055   -1.5184 C   0  0  0  1  0  0  0  0  0  0  0  0
   -9.5002    1.4467   -5.8684 H   0  0  0  1  0  0  0  0  0  0  0  0
   -7.3215    0.4792   -8.8899 H   0  0  0  1  0  0  0  0  0  0  0  0
   -5.6448    0.8342   -8.5502 H   0  0  0  1  0  0  0  0  0  0  0  0
   -6.8430    2.1030   -8.4578 H   0  0  0  1  0  0  0  0  0  0  0  0
  -10.9941   -0.6176   -5.2974 H   0  0  0  1  0  0  0  0  0  0  0  0
  -11.6737    0.9866   -5.1666 H   0  0  0  1  0  0  0  0  0  0  0  0
  -11.0415    0.1868   -3.7472 H   0  0  0  1  0  0  0  0  0  0  0  0
    2.8611    2.3418    0.3472 H   0  0  0  1  0  0  0  0  0  0  0  0
   -7.2566    2.6836   -6.4218 H   0  0  0  1  0  0  0  0  0  0  0  0
   -8.0016    2.1942   -1.9526 H   0  0  0  1  0  0  0  0  0  0  0  0
   -7.1604    3.7236   -1.8659 H   0  0  0  1  0  0  0  0  0  0  0  0
   -6.5228    3.5369   -4.1885 H   0  0  0  1  0  0  0  0  0  0  0  0
   -8.2587    3.4183   -4.0248 H   0  0  0  1  0  0  0  0  0  0  0  0
   -5.0594    2.6678   -2.2434 H   0  0  0  1  0  0  0  0  0  0  0  0
   -5.8333    1.1397   -2.5897 H   0  0  0  1  0  0  0  0  0  0  0  0
    0.7539    4.6105    1.1183 H   0  0  0  1  0  0  0  0  0  0  0  0
    1.8968    3.9987    2.2904 H   0  0  0  1  0  0  0  0  0  0  0  0
   -6.4547    1.0587   -4.2506 H   0  0  0  1  0  0  0  0  0  0  0  0
   -5.9118    2.5144    0.0671 H   0  0  0  1  0  0  0  0  0  0  0  0
   -6.5310    0.9238   -0.3079 H   0  0  0  1  0  0  0  0  0  0  0  0
   -3.0996   -2.5590    0.6000 H   0  0  0  1  0  0  0  0  0  0  0  0
   -1.9082   -1.7512    1.5910 H   0  0  0  1  0  0  0  0  0  0  0  0
    1.3032    1.7258    1.7333 H   0  0  0  1  0  0  0  0  0  0  0  0
    0.0698    3.1195    3.6147 H   0  0  0  1  0  0  0  0  0  0  0  0
   -1.0742    3.7274    2.4416 H   0  0  0  1  0  0  0  0  0  0  0  0
   -0.3150    0.2071    0.7976 H   0  0  0  1  0  0  0  0  0  0  0  0
   -0.3559    5.9978    2.9168 H   0  0  0  1  0  0  0  0  0  0  0  0
    0.7895    5.3906    4.0888 H   0  0  0  1  0  0  0  0  0  0  0  0
   -0.8210    2.9640   -0.0044 H   0  0  0  1  0  0  0  0  0  0  0  0
   -0.9737    4.5958    5.4823 H   0  0  0  1  0  0  0  0  0  0  0  0
   -2.1678    5.0043    4.2735 H   0  0  0  1  0  0  0  0  0  0  0  0
   -0.5463   -1.5594   -0.6097 H   0  0  0  1  0  0  0  0  0  0  0  0
   -0.2912   -3.5652   -1.4788 H   0  0  0  1  0  0  0  0  0  0  0  0
   -2.6743   -4.4895    0.1103 H   0  0  0  1  0  0  0  0  0  0  0  0
   -1.2136   -5.4325   -0.0667 H   0  0  0  1  0  0  0  0  0  0  0  0
   -1.0739    7.4099    4.6204 H   0  0  0  1  0  0  0  0  0  0  0  0
   -0.7781    6.7334    6.2039 H   0  0  0  1  0  0  0  0  0  0  0  0
   -2.4097    6.8293    5.5853 H   0  0  0  1  0  0  0  0  0  0  0  0
   -2.7232   -6.3556   -1.5821 H   0  0  0  1  0  0  0  0  0  0  0  0
   -1.6472   -5.3736   -2.5475 H   0  0  0  1  0  0  0  0  0  0  0  0
   -3.8428   -5.0107   -3.3394 H   0  0  0  1  0  0  0  0  0  0  0  0
   -3.3517   -3.5728   -2.4761 H   0  0  0  1  0  0  0  0  0  0  0  0
  1 34  1  0  0  0  0
  2  4  1  0  0  0  0
  3  4  1  0  0  0  0
  4  5  1  0  0  0  0
  4 32  1  0  0  0  0
  6 10  1  0  0  0  0
  6 26  1  0  0  0  0
  6 42  1  0  0  0  0
  7  8  1  0  0  0  0
  7  9  2  0  0  0  0
  7 13  1  0  0  0  0
  8 43  1  0  0  0  0
  8 44  1  0  0  0  0
  8 45  1  0  0  0  0
 10 46  1  0  0  0  0
 10 47  1  0  0  0  0
 10 48  1  0  0  0  0
 11 27  1  0  0  0  0
 11 49  1  0  0  0  0
 12 26  2  0  0  0  0
 13 23  1  0  0  0  0
 13 50  1  0  0  0  0
 14 41  1  0  0  0  0
 15 24  1  0  0  0  0
 15 32  4  0  0  0  0
 15 34  4  0  0  0  0
 16 41  2  0  0  0  0
 17 18  1  0  0  0  0
 17 20  1  0  0  0  0
 17 51  1  0  0  0  0
 17 52  1  0  0  0  0
 18 23  1  0  0  0  0
 18 53  1  0  0  0  0
 18 54  1  0  0  0  0
 19 21  4  0  0  0  0
 19 29  1  0  0  0  0
 19 32  4  0  0  0  0
 20 24  1  0  0  0  0
 20 55  1  0  0  0  0
 20 56  1  0  0  0  0
 21 25  1  0  0  0  0
 21 34  4  0  0  0  0
 22 27  1  0  0  0  0
 22 28  1  0  0  0  0
 22 57  1  0  0  0  0
 22 58  1  0  0  0  0
 23 26  1  0  0  0  0
 23 59  1  0  0  0  0
 24 60  1  0  0  0  0
 24 61  1  0  0  0  0
 25 35  1  0  0  0  0
 25 62  1  0  0  0  0
 25 63  1  0  0  0  0
 27 31  1  0  0  0  0
 27 64  1  0  0  0  0
 28 30  1  0  0  0  0
 28 65  1  0  0  0  0
 28 66  1  0  0  0  0
 29 31  2  0  0  0  0
 29 67  1  0  0  0  0
 30 33  1  0  0  0  0
 30 68  1  0  0  0  0
 30 69  1  0  0  0  0
 31 70  1  0  0  0  0
 33 38  1  0  0  0  0
 33 71  1  0  0  0  0
 33 72  1  0  0  0  0
 35 36  2  0  0  0  0
 35 73  1  0  0  0  0
 36 37  1  0  0  0  0
 36 74  1  0  0  0  0
 37 39  1  0  0  0  0
 37 75  1  0  0  0  0
 37 76  1  0  0  0  0
 38 77  1  0  0  0  0
 38 78  1  0  0  0  0
 38 79  1  0  0  0  0
 39 40  1  0  0  0  0
 39 80  1  0  0  0  0
 39 81  1  0  0  0  0
 40 41  1  0  0  0  0
 40 82  1  0  0  0  0
 40 83  1  0  0  0  0
M  END
> <ConfClashScore>
0 

> <ConfOneFourInteractionScore>
-0.987923 

> <ConfScore>
-0.0783195 

> <ConfScorePBest>
0.00652372 

> <ConfTolerance>
1.91193 

$$$$
9548876
  PyMOL2.2          3D                             0

 83 83  0  0  0  0  0  0  0  0999 V2000
   -4.9868   -1.0460   -0.1348 H   0  0  0  1  0  0  0  0  0  0  0  0
   -2.4228    3.5487    0.5303 H   0  0  0  1  0  0  0  0  0  0  0  0
   -4.1145    3.6442    0.1043 H   0  0  0  1  0  0  0  0  0  0  0  0
   -3.1758    3.1933   -0.1416 C   0  0  0  1  0  0  0  0  0  0  0  0
   -2.9081    3.4503   -1.1452 H   0  0  0  1  0  0  0  0  0  0  0  0
  -10.7508    2.6529   -1.2470 N   0  0  0  1  0  0  0  0  0  0  0  0
  -12.5582    3.2640    2.1388 C   0  0  0  1  0  0  0  0  0  0  0  0
  -13.4009    3.1768    3.3991 C   0  0  0  1  0  0  0  0  0  0  0  0
  -13.0457    3.6210    1.0695 O   0  0  0  1  0  0  0  0  0  0  0  0
  -11.1666    1.8909   -2.4150 C   0  0  0  1  0  0  0  0  0  0  0  0
    1.5377    1.5134    1.8414 O   0  0  0  1  0  0  0  0  0  0  0  0
  -11.3945    1.0281    0.1743 O   0  0  0  1  0  0  0  0  0  0  0  0
  -11.2657    2.9285    2.2771 N   0  0  0  1  0  0  0  0  0  0  0  0
   -3.7358   -4.2062    5.6643 O   0  5  0  1  0  0  0  0  0  0  0  0
   -4.4625    1.0491   -0.2249 N   0  0  0  1  0  0  0  0  0  0  0  0
   -2.9861   -6.2339    6.3721 O   0  0  0  1  0  0  0  0  0  0  0  0
   -7.9984    2.3134    0.4299 C   0  0  0  1  0  0  0  0  0  0  0  0
   -8.9430    2.4777    1.6107 C   0  0  0  1  0  0  0  0  0  0  0  0
   -2.3186    0.7720    0.2922 C   0  0  0  1  0  0  0  0  0  0  0  0
   -6.6247    1.7571    0.7639 C   0  0  0  1  0  0  0  0  0  0  0  0
   -2.9358   -0.4874    0.2784 C   0  0  0  1  0  0  0  0  0  0  0  0
    1.8834    3.0867    0.0143 C   0  0  0  1  0  0  0  0  0  0  0  0
  -10.3238    2.9332    1.1403 C   0  0  0  1  0  0  0  0  0  0  0  0
   -5.7580    1.6793   -0.4813 C   0  0  0  1  0  0  0  0  0  0  0  0
   -2.3207   -1.8388    0.5556 C   0  0  0  1  0  0  0  0  0  0  0  0
  -10.8971    2.1360   -0.0197 C   0  0  0  1  0  0  0  0  0  0  0  0
    0.9726    2.6123    1.1303 C   0  0  0  1  0  0  0  0  0  0  0  0
    3.2178    3.5450    0.4952 C   0  0  0  1  0  0  0  0  0  0  0  0
   -0.9142    1.0321    0.5846 C   0  0  0  1  0  0  0  0  0  0  0  0
    4.1857    4.1048   -0.5358 C   0  0  0  1  0  0  0  0  0  0  0  0
   -0.3452    2.1938    0.5721 C   0  0  0  1  0  0  0  0  0  0  0  0
   -3.2901    1.7125   -0.0222 C   0  0  0  1  0  0  0  0  0  0  0  0
    5.4177    4.6840    0.1404 C   0  0  0  1  0  0  0  0  0  0  0  0
   -4.2659   -0.3019   -0.0445 C   0  0  0  1  0  0  0  0  0  0  0  0
   -1.6321   -1.8856    1.8826 C   0  0  0  1  0  0  0  0  0  0  0  0
   -1.9528   -2.6922    2.8659 C   0  0  0  1  0  0  0  0  0  0  0  0
   -3.0940   -3.6734    2.8988 C   0  0  0  1  0  0  0  0  0  0  0  0
    6.4228    5.2697   -0.8379 C   0  0  0  1  0  0  0  0  0  0  0  0
   -2.6368   -5.1130    3.0687 C   0  0  0  1  0  0  0  0  0  0  0  0
   -3.4909   -5.9052    4.0451 C   0  0  0  1  0  0  0  0  0  0  0  0
   -3.3681   -5.5017    5.4742 C   0  0  0  1  0  0  0  0  0  0  0  0
  -10.3630    3.5459   -1.3584 H   0  0  0  1  0  0  0  0  0  0  0  0
  -13.3336    2.1896    3.8062 H   0  0  0  1  0  0  0  0  0  0  0  0
  -14.4211    3.3956    3.1616 H   0  0  0  1  0  0  0  0  0  0  0  0
  -13.0420    3.8839    4.1175 H   0  0  0  1  0  0  0  0  0  0  0  0
  -11.1542    0.8464   -2.1831 H   0  0  0  1  0  0  0  0  0  0  0  0
  -10.4942    2.0843   -3.2246 H   0  0  0  1  0  0  0  0  0  0  0  0
  -12.1572    2.1818   -2.6962 H   0  0  0  1  0  0  0  0  0  0  0  0
    2.4946    1.5436    1.7700 H   0  0  0  1  0  0  0  0  0  0  0  0
  -10.9361    2.6715    3.1634 H   0  0  0  1  0  0  0  0  0  0  0  0
   -7.8640    3.2745   -0.0208 H   0  0  0  1  0  0  0  0  0  0  0  0
   -8.4604    1.6511   -0.2721 H   0  0  0  1  0  0  0  0  0  0  0  0
   -8.5421    3.2084    2.2816 H   0  0  0  1  0  0  0  0  0  0  0  0
   -9.0367    1.5403    2.1180 H   0  0  0  1  0  0  0  0  0  0  0  0
   -6.7344    0.7761    1.1769 H   0  0  0  1  0  0  0  0  0  0  0  0
   -6.1524    2.3957    1.4808 H   0  0  0  1  0  0  0  0  0  0  0  0
    1.4064    3.9011   -0.4898 H   0  0  0  1  0  0  0  0  0  0  0  0
    2.0291    2.2784   -0.6714 H   0  0  0  1  0  0  0  0  0  0  0  0
  -10.2229    3.9451    0.8074 H   0  0  0  1  0  0  0  0  0  0  0  0
   -6.2755    1.1091   -1.2242 H   0  0  0  1  0  0  0  0  0  0  0  0
   -5.5905    2.6715   -0.8451 H   0  0  0  1  0  0  0  0  0  0  0  0
   -1.6063   -2.0557   -0.2109 H   0  0  0  1  0  0  0  0  0  0  0  0
   -3.0940   -2.5782    0.5427 H   0  0  0  1  0  0  0  0  0  0  0  0
    0.8089    3.4286    1.8023 H   0  0  0  1  0  0  0  0  0  0  0  0
    3.6949    2.7076    0.9600 H   0  0  0  1  0  0  0  0  0  0  0  0
    3.0494    4.3101    1.2241 H   0  0  0  1  0  0  0  0  0  0  0  0
   -0.3189    0.2136    0.8237 H   0  0  0  1  0  0  0  0  0  0  0  0
    3.6968    4.8758   -1.0939 H   0  0  0  1  0  0  0  0  0  0  0  0
    4.4855    3.3198   -1.1982 H   0  0  0  1  0  0  0  0  0  0  0  0
   -0.8871    2.9475    0.1032 H   0  0  0  1  0  0  0  0  0  0  0  0
    5.8981    3.9050    0.6948 H   0  0  0  1  0  0  0  0  0  0  0  0
    5.1050    5.4581    0.8097 H   0  0  0  1  0  0  0  0  0  0  0  0
   -0.8400   -1.2297    2.0371 H   0  0  0  1  0  0  0  0  0  0  0  0
   -1.3537   -2.6493    3.7149 H   0  0  0  1  0  0  0  0  0  0  0  0
   -3.6373   -3.5948    1.9804 H   0  0  0  1  0  0  0  0  0  0  0  0
   -3.7364   -3.4213    3.7165 H   0  0  0  1  0  0  0  0  0  0  0  0
    7.0894    4.5007   -1.1684 H   0  0  0  1  0  0  0  0  0  0  0  0
    6.9825    6.0426   -0.3539 H   0  0  0  1  0  0  0  0  0  0  0  0
    5.9042    5.6780   -1.6800 H   0  0  0  1  0  0  0  0  0  0  0  0
   -1.6283   -5.1087    3.4263 H   0  0  0  1  0  0  0  0  0  0  0  0
   -2.6755   -5.5961    2.1148 H   0  0  0  1  0  0  0  0  0  0  0  0
   -3.2113   -6.9352    3.9678 H   0  0  0  1  0  0  0  0  0  0  0  0
   -4.5148   -5.7904    3.7565 H   0  0  0  1  0  0  0  0  0  0  0  0
  1 34  1  0  0  0  0
  2  4  1  0  0  0  0
  3  4  1  0  0  0  0
  4  5  1  0  0  0  0
  4 32  1  0  0  0  0
  6 10  1  0  0  0  0
  6 26  1  0  0  0  0
  6 42  1  0  0  0  0
  7  8  1  0  0  0  0
  7  9  2  0  0  0  0
  7 13  1  0  0  0  0
  8 43  1  0  0  0  0
  8 44  1  0  0  0  0
  8 45  1  0  0  0  0
 10 46  1  0  0  0  0
 10 47  1  0  0  0  0
 10 48  1  0  0  0  0
 11 27  1  0  0  0  0
 11 49  1  0  0  0  0
 12 26  2  0  0  0  0
 13 23  1  0  0  0  0
 13 50  1  0  0  0  0
 14 41  1  0  0  0  0
 15 24  1  0  0  0  0
 15 32  4  0  0  0  0
 15 34  4  0  0  0  0
 16 41  2  0  0  0  0
 17 18  1  0  0  0  0
 17 20  1  0  0  0  0
 17 51  1  0  0  0  0
 17 52  1  0  0  0  0
 18 23  1  0  0  0  0
 18 53  1  0  0  0  0
 18 54  1  0  0  0  0
 19 21  4  0  0  0  0
 19 29  1  0  0  0  0
 19 32  4  0  0  0  0
 20 24  1  0  0  0  0
 20 55  1  0  0  0  0
 20 56  1  0  0  0  0
 21 25  1  0  0  0  0
 21 34  4  0  0  0  0
 22 27  1  0  0  0  0
 22 28  1  0  0  0  0
 22 57  1  0  0  0  0
 22 58  1  0  0  0  0
 23 26  1  0  0  0  0
 23 59  1  0  0  0  0
 24 60  1  0  0  0  0
 24 61  1  0  0  0  0
 25 35  1  0  0  0  0
 25 62  1  0  0  0  0
 25 63  1  0  0  0  0
 27 31  1  0  0  0  0
 27 64  1  0  0  0  0
 28 30  1  0  0  0  0
 28 65  1  0  0  0  0
 28 66  1  0  0  0  0
 29 31  2  0  0  0  0
 29 67  1  0  0  0  0
 30 33  1  0  0  0  0
 30 68  1  0  0  0  0
 30 69  1  0  0  0  0
 31 70  1  0  0  0  0
 33 38  1  0  0  0  0
 33 71  1  0  0  0  0
 33 72  1  0  0  0  0
 35 36  2  0  0  0  0
 35 73  1  0  0  0  0
 36 37  1  0  0  0  0
 36 74  1  0  0  0  0
 37 39  1  0  0  0  0
 37 75  1  0  0  0  0
 37 76  1  0  0  0  0
 38 77  1  0  0  0  0
 38 78  1  0  0  0  0
 38 79  1  0  0  0  0
 39 40  1  0  0  0  0
 39 80  1  0  0  0  0
 39 81  1  0  0  0  0
 40 41  1  0  0  0  0
 40 82  1  0  0  0  0
 40 83  1  0  0  0  0
M  END
> <ConfClashScore>
0 

> <ConfOneFourInteractionScore>
-0.99476 

> <ConfScore>
-0.077974 

> <ConfScorePBest>
0.00649524 

> <ConfTolerance>
1.74268 

$$$$
9548876
  PyMOL2.2          3D                             0

 83 83  0  0  0  0  0  0  0  0999 V2000
   -5.0107   -1.0386   -0.1245 H   0  0  0  1  0  0  0  0  0  0  0  0
   -2.4316    3.5446    0.5405 H   0  0  0  1  0  0  0  0  0  0  0  0
   -4.1121    3.6458    0.0734 H   0  0  0  1  0  0  0  0  0  0  0  0
   -3.1704    3.1879   -0.1465 C   0  0  0  1  0  0  0  0  0  0  0  0
   -2.8774    3.4356   -1.1453 H   0  0  0  1  0  0  0  0  0  0  0  0
   -4.1741    4.0072   -6.8688 N   0  0  0  1  0  0  0  0  0  0  0  0
   -6.0274    6.0959   -3.1935 C   0  0  0  1  0  0  0  0  0  0  0  0
   -7.0555    7.1586   -2.8574 C   0  0  0  1  0  0  0  0  0  0  0  0
   -5.0502    5.9143   -2.4720 O   0  0  0  1  0  0  0  0  0  0  0  0
   -4.0633    3.5586   -8.2488 C   0  0  0  1  0  0  0  0  0  0  0  0
    1.6046    1.4085    1.7278 O   0  0  0  1  0  0  0  0  0  0  0  0
   -6.4195    4.2185   -6.8713 O   0  0  0  1  0  0  0  0  0  0  0  0
   -6.2163    5.3666   -4.2935 N   0  0  0  1  0  0  0  0  0  0  0  0
    4.3130   -3.2953   -1.9865 O   0  5  0  1  0  0  0  0  0  0  0  0
   -4.4713    1.0522   -0.2245 N   0  0  0  1  0  0  0  0  0  0  0  0
    2.3961   -2.5920   -2.9893 O   0  0  0  1  0  0  0  0  0  0  0  0
   -5.4521    2.9348   -2.6395 C   0  0  0  1  0  0  0  0  0  0  0  0
   -5.6735    2.9843   -4.1310 C   0  0  0  1  0  0  0  0  0  0  0  0
   -2.3328    0.7636    0.3083 C   0  0  0  1  0  0  0  0  0  0  0  0
   -6.0937    1.7287   -1.9751 C   0  0  0  1  0  0  0  0  0  0  0  0
   -2.9586   -0.4915    0.2984 C   0  0  0  1  0  0  0  0  0  0  0  0
    1.9373    2.9093   -0.1386 C   0  0  0  1  0  0  0  0  0  0  0  0
   -5.3020    4.3351   -4.7566 C   0  0  0  1  0  0  0  0  0  0  0  0
   -5.7607    1.6896   -0.4933 C   0  0  0  1  0  0  0  0  0  0  0  0
   -2.2385   -1.8076    0.5088 C   0  0  0  1  0  0  0  0  0  0  0  0
   -5.3546    4.2080   -6.2762 C   0  0  0  1  0  0  0  0  0  0  0  0
    1.0398    2.5161    1.0412 C   0  0  0  1  0  0  0  0  0  0  0  0
    3.2471    3.5041    0.3553 C   0  0  0  1  0  0  0  0  0  0  0  0
   -0.9286    1.0159    0.6081 C   0  0  0  1  0  0  0  0  0  0  0  0
    4.0811    3.8806   -0.8441 C   0  0  0  1  0  0  0  0  0  0  0  0
   -0.3367    2.1830    0.5600 C   0  0  0  1  0  0  0  0  0  0  0  0
   -3.2957    1.7087   -0.0184 C   0  0  0  1  0  0  0  0  0  0  0  0
    5.3674    4.6320   -0.5374 C   0  0  0  1  0  0  0  0  0  0  0  0
   -4.2853   -0.2989   -0.0343 C   0  0  0  1  0  0  0  0  0  0  0  0
   -2.4252   -2.8020   -0.5928 C   0  0  0  1  0  0  0  0  0  0  0  0
   -1.5093   -3.2464   -1.4200 C   0  0  0  1  0  0  0  0  0  0  0  0
   -0.0250   -3.0851   -1.2281 C   0  0  0  1  0  0  0  0  0  0  0  0
    6.1471    4.9084   -1.8125 C   0  0  0  1  0  0  0  0  0  0  0  0
    0.7745   -4.2967   -1.4540 C   0  0  0  1  0  0  0  0  0  0  0  0
    2.2844   -4.2563   -1.2586 C   0  0  0  1  0  0  0  0  0  0  0  0
    2.9657   -3.2961   -2.1719 C   0  0  0  1  0  0  0  0  0  0  0  0
   -3.3543    4.1677   -6.3564 H   0  0  0  1  0  0  0  0  0  0  0  0
   -7.1788    7.8136   -3.6945 H   0  0  0  1  0  0  0  0  0  0  0  0
   -6.7225    7.7214   -2.0105 H   0  0  0  1  0  0  0  0  0  0  0  0
   -7.9905    6.6907   -2.6301 H   0  0  0  1  0  0  0  0  0  0  0  0
   -5.0413    3.4569   -8.6709 H   0  0  0  1  0  0  0  0  0  0  0  0
   -3.5629    2.6132   -8.2771 H   0  0  0  1  0  0  0  0  0  0  0  0
   -3.5044    4.2756   -8.8129 H   0  0  0  1  0  0  0  0  0  0  0  0
    1.6206    0.6450    1.1459 H   0  0  0  1  0  0  0  0  0  0  0  0
   -7.0228    5.5365   -4.8237 H   0  0  0  1  0  0  0  0  0  0  0  0
   -5.8656    3.8212   -2.2056 H   0  0  0  1  0  0  0  0  0  0  0  0
   -4.3988    2.9042   -2.4538 H   0  0  0  1  0  0  0  0  0  0  0  0
   -6.7078    2.7926   -4.3269 H   0  0  0  1  0  0  0  0  0  0  0  0
   -5.0764    2.2230   -4.5880 H   0  0  0  1  0  0  0  0  0  0  0  0
   -5.7293    0.8367   -2.4402 H   0  0  0  1  0  0  0  0  0  0  0  0
   -7.1555    1.7857   -2.0947 H   0  0  0  1  0  0  0  0  0  0  0  0
    1.4284    3.6327   -0.7407 H   0  0  0  1  0  0  0  0  0  0  0  0
    2.1463    2.0394   -0.7256 H   0  0  0  1  0  0  0  0  0  0  0  0
   -4.3022    4.5827   -4.4668 H   0  0  0  1  0  0  0  0  0  0  0  0
   -5.7313    2.6927   -0.1220 H   0  0  0  1  0  0  0  0  0  0  0  0
   -6.5264    1.1425    0.0158 H   0  0  0  1  0  0  0  0  0  0  0  0
   -2.5991   -2.2439    1.4169 H   0  0  0  1  0  0  0  0  0  0  0  0
   -1.1920   -1.6044    0.6012 H   0  0  0  1  0  0  0  0  0  0  0  0
    0.9717    3.3541    1.7029 H   0  0  0  1  0  0  0  0  0  0  0  0
    3.7708    2.7831    0.9475 H   0  0  0  1  0  0  0  0  0  0  0  0
    3.0489    4.3746    0.9451 H   0  0  0  1  0  0  0  0  0  0  0  0
   -0.3471    0.1989    0.8839 H   0  0  0  1  0  0  0  0  0  0  0  0
    3.4826    4.4979   -1.4810 H   0  0  0  1  0  0  0  0  0  0  0  0
    4.3407    2.9802   -1.3607 H   0  0  0  1  0  0  0  0  0  0  0  0
   -0.8831    2.9630    0.1419 H   0  0  0  1  0  0  0  0  0  0  0  0
    5.9698    4.0421    0.1213 H   0  0  0  1  0  0  0  0  0  0  0  0
    5.1266    5.5614   -0.0649 H   0  0  0  1  0  0  0  0  0  0  0  0
   -3.3852   -3.1823   -0.7164 H   0  0  0  1  0  0  0  0  0  0  0  0
   -1.8328   -3.7476   -2.2720 H   0  0  0  1  0  0  0  0  0  0  0  0
    0.1445   -2.7605   -0.2228 H   0  0  0  1  0  0  0  0  0  0  0  0
    0.3160   -2.3330   -1.9086 H   0  0  0  1  0  0  0  0  0  0  0  0
    7.1087    4.4433   -1.7511 H   0  0  0  1  0  0  0  0  0  0  0  0
    6.2691    5.9645   -1.9339 H   0  0  0  1  0  0  0  0  0  0  0  0
    5.6123    4.5121   -2.6503 H   0  0  0  1  0  0  0  0  0  0  0  0
    0.6014   -4.5974   -2.4662 H   0  0  0  1  0  0  0  0  0  0  0  0
    0.3964   -5.0453   -0.7895 H   0  0  0  1  0  0  0  0  0  0  0  0
    2.6774   -5.2350   -1.4387 H   0  0  0  1  0  0  0  0  0  0  0  0
    2.4895   -3.9694   -0.2484 H   0  0  0  1  0  0  0  0  0  0  0  0
  1 34  1  0  0  0  0
  2  4  1  0  0  0  0
  3  4  1  0  0  0  0
  4  5  1  0  0  0  0
  4 32  1  0  0  0  0
  6 10  1  0  0  0  0
  6 26  1  0  0  0  0
  6 42  1  0  0  0  0
  7  8  1  0  0  0  0
  7  9  2  0  0  0  0
  7 13  1  0  0  0  0
  8 43  1  0  0  0  0
  8 44  1  0  0  0  0
  8 45  1  0  0  0  0
 10 46  1  0  0  0  0
 10 47  1  0  0  0  0
 10 48  1  0  0  0  0
 11 27  1  0  0  0  0
 11 49  1  0  0  0  0
 12 26  2  0  0  0  0
 13 23  1  0  0  0  0
 13 50  1  0  0  0  0
 14 41  1  0  0  0  0
 15 24  1  0  0  0  0
 15 32  4  0  0  0  0
 15 34  4  0  0  0  0
 16 41  2  0  0  0  0
 17 18  1  0  0  0  0
 17 20  1  0  0  0  0
 17 51  1  0  0  0  0
 17 52  1  0  0  0  0
 18 23  1  0  0  0  0
 18 53  1  0  0  0  0
 18 54  1  0  0  0  0
 19 21  4  0  0  0  0
 19 29  1  0  0  0  0
 19 32  4  0  0  0  0
 20 24  1  0  0  0  0
 20 55  1  0  0  0  0
 20 56  1  0  0  0  0
 21 25  1  0  0  0  0
 21 34  4  0  0  0  0
 22 27  1  0  0  0  0
 22 28  1  0  0  0  0
 22 57  1  0  0  0  0
 22 58  1  0  0  0  0
 23 26  1  0  0  0  0
 23 59  1  0  0  0  0
 24 60  1  0  0  0  0
 24 61  1  0  0  0  0
 25 35  1  0  0  0  0
 25 62  1  0  0  0  0
 25 63  1  0  0  0  0
 27 31  1  0  0  0  0
 27 64  1  0  0  0  0
 28 30  1  0  0  0  0
 28 65  1  0  0  0  0
 28 66  1  0  0  0  0
 29 31  2  0  0  0  0
 29 67  1  0  0  0  0
 30 33  1  0  0  0  0
 30 68  1  0  0  0  0
 30 69  1  0  0  0  0
 31 70  1  0  0  0  0
 33 38  1  0  0  0  0
 33 71  1  0  0  0  0
 33 72  1  0  0  0  0
 35 36  2  0  0  0  0
 35 73  1  0  0  0  0
 36 37  1  0  0  0  0
 36 74  1  0  0  0  0
 37 39  1  0  0  0  0
 37 75  1  0  0  0  0
 37 76  1  0  0  0  0
 38 77  1  0  0  0  0
 38 78  1  0  0  0  0
 38 79  1  0  0  0  0
 39 40  1  0  0  0  0
 39 80  1  0  0  0  0
 39 81  1  0  0  0  0
 40 41  1  0  0  0  0
 40 82  1  0  0  0  0
 40 83  1  0  0  0  0
M  END
> <ConfClashScore>
0 

> <ConfOneFourInteractionScore>
-0.992124 

> <ConfScore>
-0.0775296 

> <ConfScorePBest>
0.00646676 

> <ConfTolerance>
1.79158 

$$$$
9548876
  PyMOL2.2          3D                             0

 83 83  0  0  0  0  0  0  0  0999 V2000
   -5.0134   -1.0246   -0.1144 H   0  0  0  1  0  0  0  0  0  0  0  0
   -2.4358    3.4349   -0.8818 H   0  0  0  1  0  0  0  0  0  0  0  0
   -2.8501    3.6034    0.8072 H   0  0  0  1  0  0  0  0  0  0  0  0
   -3.1616    3.1970   -0.1324 C   0  0  0  1  0  0  0  0  0  0  0  0
   -4.1074    3.6155   -0.4066 H   0  0  0  1  0  0  0  0  0  0  0  0
  -10.2176    5.2833    3.1335 N   0  0  0  1  0  0  0  0  0  0  0  0
   -6.1115    5.7605    1.7015 C   0  0  0  1  0  0  0  0  0  0  0  0
   -4.6408    5.7734    2.0520 C   0  0  0  1  0  0  0  0  0  0  0  0
   -6.6369    6.7072    1.1173 O   0  0  0  1  0  0  0  0  0  0  0  0
  -11.0095    5.7530    4.2605 C   0  0  0  1  0  0  0  0  0  0  0  0
    2.1440    1.5223    0.4216 O   0  0  0  1  0  0  0  0  0  0  0  0
   -8.3290    4.9328    4.3156 O   0  0  0  1  0  0  0  0  0  0  0  0
   -6.7887    4.6607    2.0677 N   0  0  0  1  0  0  0  0  0  0  0  0
    4.3012   -1.4746    3.9731 O   0  5  0  1  0  0  0  0  0  0  0  0
   -4.4699    1.0656   -0.2056 N   0  0  0  1  0  0  0  0  0  0  0  0
    3.9194   -0.3043    2.0448 O   0  0  0  1  0  0  0  0  0  0  0  0
   -7.8682    2.7186    0.2876 C   0  0  0  1  0  0  0  0  0  0  0  0
   -8.6947    3.1822    1.4772 C   0  0  0  1  0  0  0  0  0  0  0  0
   -2.3228    0.7665    0.2853 C   0  0  0  1  0  0  0  0  0  0  0  0
   -6.5868    2.0044    0.6858 C   0  0  0  1  0  0  0  0  0  0  0  0
   -2.9522   -0.4868    0.2757 C   0  0  0  1  0  0  0  0  0  0  0  0
    1.4981    3.8349    0.7552 C   0  0  0  1  0  0  0  0  0  0  0  0
   -8.2361    4.5643    1.9513 C   0  0  0  1  0  0  0  0  0  0  0  0
   -5.7849    1.6109   -0.5440 C   0  0  0  1  0  0  0  0  0  0  0  0
   -2.2922   -1.8172    0.5513 C   0  0  0  1  0  0  0  0  0  0  0  0
   -8.9238    4.9712    3.2511 C   0  0  0  1  0  0  0  0  0  0  0  0
    1.1602    2.3597    1.0213 C   0  0  0  1  0  0  0  0  0  0  0  0
    0.6220    4.8030    1.5319 C   0  0  0  1  0  0  0  0  0  0  0  0
   -0.9104    1.0126    0.5621 C   0  0  0  1  0  0  0  0  0  0  0  0
    1.0993    6.2404    1.4546 C   0  0  0  1  0  0  0  0  0  0  0  0
   -0.1916    2.0999    0.4359 C   0  0  0  1  0  0  0  0  0  0  0  0
   -3.2888    1.7171   -0.0152 C   0  0  0  1  0  0  0  0  0  0  0  0
    0.1980    7.2655    2.1216 C   0  0  0  1  0  0  0  0  0  0  0  0
   -4.2843   -0.2876   -0.0309 C   0  0  0  1  0  0  0  0  0  0  0  0
   -1.3460   -2.2745   -0.5130 C   0  0  0  1  0  0  0  0  0  0  0  0
   -0.0659   -2.4863   -0.3363 C   0  0  0  1  0  0  0  0  0  0  0  0
    0.5696   -2.6116    1.0226 C   0  0  0  1  0  0  0  0  0  0  0  0
    0.3109    7.1786    3.6341 C   0  0  0  1  0  0  0  0  0  0  0  0
    1.8057   -1.7369    1.1861 C   0  0  0  1  0  0  0  0  0  0  0  0
    2.4054   -2.0055    2.5566 C   0  0  0  1  0  0  0  0  0  0  0  0
    3.6150   -1.1815    2.8361 C   0  0  0  1  0  0  0  0  0  0  0  0
  -10.6483    5.1927    2.2579 H   0  0  0  1  0  0  0  0  0  0  0  0
   -4.1876    6.6593    1.6586 H   0  0  0  1  0  0  0  0  0  0  0  0
   -4.1661    4.9125    1.6296 H   0  0  0  1  0  0  0  0  0  0  0  0
   -4.5278    5.7576    3.1159 H   0  0  0  1  0  0  0  0  0  0  0  0
  -11.4595    6.6920    4.0142 H   0  0  0  1  0  0  0  0  0  0  0  0
  -10.3767    5.8742    5.1148 H   0  0  0  1  0  0  0  0  0  0  0  0
  -11.7744    5.0381    4.4812 H   0  0  0  1  0  0  0  0  0  0  0  0
    1.7164    0.7623    0.0201 H   0  0  0  1  0  0  0  0  0  0  0  0
   -6.2910    3.8963    2.4260 H   0  0  0  1  0  0  0  0  0  0  0  0
   -7.6108    3.5744   -0.3008 H   0  0  0  1  0  0  0  0  0  0  0  0
   -8.4623    2.0482   -0.2977 H   0  0  0  1  0  0  0  0  0  0  0  0
   -8.5814    2.4813    2.2777 H   0  0  0  1  0  0  0  0  0  0  0  0
   -9.7243    3.2335    1.1905 H   0  0  0  1  0  0  0  0  0  0  0  0
   -6.8340    1.1233    1.2403 H   0  0  0  1  0  0  0  0  0  0  0  0
   -5.9968    2.6563    1.2956 H   0  0  0  1  0  0  0  0  0  0  0  0
    1.3736    4.0283   -0.2898 H   0  0  0  1  0  0  0  0  0  0  0  0
    2.5180    4.0044    1.0309 H   0  0  0  1  0  0  0  0  0  0  0  0
   -8.5480    5.2645    1.2048 H   0  0  0  1  0  0  0  0  0  0  0  0
   -6.3332    0.8707   -1.0884 H   0  0  0  1  0  0  0  0  0  0  0  0
   -5.6494    2.4775   -1.1567 H   0  0  0  1  0  0  0  0  0  0  0  0
   -3.0597   -2.5554    0.6551 H   0  0  0  1  0  0  0  0  0  0  0  0
   -1.7481   -1.7360    1.4691 H   0  0  0  1  0  0  0  0  0  0  0  0
    1.1227    2.1967    2.0782 H   0  0  0  1  0  0  0  0  0  0  0  0
    0.6131    4.5033    2.5590 H   0  0  0  1  0  0  0  0  0  0  0  0
   -0.3711    4.7536    1.1368 H   0  0  0  1  0  0  0  0  0  0  0  0
   -0.3883    0.1869    0.9187 H   0  0  0  1  0  0  0  0  0  0  0  0
    1.1885    6.5029    0.4212 H   0  0  0  1  0  0  0  0  0  0  0  0
    2.0608    6.2939    1.9210 H   0  0  0  1  0  0  0  0  0  0  0  0
   -0.6054    2.8659   -0.1329 H   0  0  0  1  0  0  0  0  0  0  0  0
   -0.8160    7.0809    1.8342 H   0  0  0  1  0  0  0  0  0  0  0  0
    0.4865    8.2457    1.8040 H   0  0  0  1  0  0  0  0  0  0  0  0
   -1.7337   -2.4364   -1.4644 H   0  0  0  1  0  0  0  0  0  0  0  0
    0.5416   -2.5722   -1.1760 H   0  0  0  1  0  0  0  0  0  0  0  0
    0.8525   -3.6325    1.1734 H   0  0  0  1  0  0  0  0  0  0  0  0
   -0.1492   -2.3271    1.7623 H   0  0  0  1  0  0  0  0  0  0  0  0
    1.3367    7.2774    3.9220 H   0  0  0  1  0  0  0  0  0  0  0  0
   -0.0628    6.2324    3.9656 H   0  0  0  1  0  0  0  0  0  0  0  0
   -0.2618    7.9649    4.0799 H   0  0  0  1  0  0  0  0  0  0  0  0
    1.5314   -0.7056    1.1075 H   0  0  0  1  0  0  0  0  0  0  0  0
    2.5201   -1.9753    0.4261 H   0  0  0  1  0  0  0  0  0  0  0  0
    2.6768   -3.0390    2.6130 H   0  0  0  1  0  0  0  0  0  0  0  0
    1.6667   -1.7892    3.2999 H   0  0  0  1  0  0  0  0  0  0  0  0
  1 34  1  0  0  0  0
  2  4  1  0  0  0  0
  3  4  1  0  0  0  0
  4  5  1  0  0  0  0
  4 32  1  0  0  0  0
  6 10  1  0  0  0  0
  6 26  1  0  0  0  0
  6 42  1  0  0  0  0
  7  8  1  0  0  0  0
  7  9  2  0  0  0  0
  7 13  1  0  0  0  0
  8 43  1  0  0  0  0
  8 44  1  0  0  0  0
  8 45  1  0  0  0  0
 10 46  1  0  0  0  0
 10 47  1  0  0  0  0
 10 48  1  0  0  0  0
 11 27  1  0  0  0  0
 11 49  1  0  0  0  0
 12 26  2  0  0  0  0
 13 23  1  0  0  0  0
 13 50  1  0  0  0  0
 14 41  1  0  0  0  0
 15 24  1  0  0  0  0
 15 32  4  0  0  0  0
 15 34  4  0  0  0  0
 16 41  2  0  0  0  0
 17 18  1  0  0  0  0
 17 20  1  0  0  0  0
 17 51  1  0  0  0  0
 17 52  1  0  0  0  0
 18 23  1  0  0  0  0
 18 53  1  0  0  0  0
 18 54  1  0  0  0  0
 19 21  4  0  0  0  0
 19 29  1  0  0  0  0
 19 32  4  0  0  0  0
 20 24  1  0  0  0  0
 20 55  1  0  0  0  0
 20 56  1  0  0  0  0
 21 25  1  0  0  0  0
 21 34  4  0  0  0  0
 22 27  1  0  0  0  0
 22 28  1  0  0  0  0
 22 57  1  0  0  0  0
 22 58  1  0  0  0  0
 23 26  1  0  0  0  0
 23 59  1  0  0  0  0
 24 60  1  0  0  0  0
 24 61  1  0  0  0  0
 25 35  1  0  0  0  0
 25 62  1  0  0  0  0
 25 63  1  0  0  0  0
 27 31  1  0  0  0  0
 27 64  1  0  0  0  0
 28 30  1  0  0  0  0
 28 65  1  0  0  0  0
 28 66  1  0  0  0  0
 29 31  2  0  0  0  0
 29 67  1  0  0  0  0
 30 33  1  0  0  0  0
 30 68  1  0  0  0  0
 30 69  1  0  0  0  0
 31 70  1  0  0  0  0
 33 38  1  0  0  0  0
 33 71  1  0  0  0  0
 33 72  1  0  0  0  0
 35 36  2  0  0  0  0
 35 73  1  0  0  0  0
 36 37  1  0  0  0  0
 36 74  1  0  0  0  0
 37 39  1  0  0  0  0
 37 75  1  0  0  0  0
 37 76  1  0  0  0  0
 38 77  1  0  0  0  0
 38 78  1  0  0  0  0
 38 79  1  0  0  0  0
 39 40  1  0  0  0  0
 39 80  1  0  0  0  0
 39 81  1  0  0  0  0
 40 41  1  0  0  0  0
 40 82  1  0  0  0  0
 40 83  1  0  0  0  0
M  END
> <ConfClashScore>
0 

> <ConfOneFourInteractionScore>
-0.992255 

> <ConfScore>
-0.0760417 

> <ConfScorePBest>
0.00643828 

> <ConfTolerance>
1.81987 

$$$$
9548876
  PyMOL2.2          3D                             0

 83 83  0  0  0  0  0  0  0  0999 V2000
   -4.9989   -1.0413   -0.1555 H   0  0  0  1  0  0  0  0  0  0  0  0
   -2.3611    3.4300   -0.8056 H   0  0  0  1  0  0  0  0  0  0  0  0
   -2.9788    3.6105    0.8187 H   0  0  0  1  0  0  0  0  0  0  0  0
   -3.1692    3.1900   -0.1466 C   0  0  0  1  0  0  0  0  0  0  0  0
   -4.0800    3.5923   -0.5382 H   0  0  0  1  0  0  0  0  0  0  0  0
  -11.5492    2.7157    1.0673 N   0  0  0  1  0  0  0  0  0  0  0  0
  -11.1347    3.9966    4.3565 C   0  0  0  1  0  0  0  0  0  0  0  0
  -11.3911    4.0255    5.8372 C   0  0  0  1  0  0  0  0  0  0  0  0
  -11.9585    4.3827    3.5436 O   0  0  0  1  0  0  0  0  0  0  0  0
  -12.5149    1.8463    0.4120 C   0  0  0  1  0  0  0  0  0  0  0  0
    1.2702    3.9210    1.1710 O   0  0  0  1  0  0  0  0  0  0  0  0
  -10.5299    1.0637    2.1868 O   0  0  0  1  0  0  0  0  0  0  0  0
   -9.9664    3.5333    3.9098 N   0  0  0  1  0  0  0  0  0  0  0  0
   -5.4104   -2.0709    7.1882 O   0  5  0  1  0  0  0  0  0  0  0  0
   -4.4645    1.0515   -0.2413 N   0  0  0  1  0  0  0  0  0  0  0  0
   -6.4725   -3.5903    5.8444 O   0  0  0  1  0  0  0  0  0  0  0  0
   -7.7867    2.4978    0.9491 C   0  0  0  1  0  0  0  0  0  0  0  0
   -8.2345    2.6986    2.3916 C   0  0  0  1  0  0  0  0  0  0  0  0
   -2.3268    0.7651    0.2960 C   0  0  0  1  0  0  0  0  0  0  0  0
   -6.4059    1.9988    0.8973 C   0  0  0  1  0  0  0  0  0  0  0  0
   -2.9493   -0.4915    0.2767 C   0  0  0  1  0  0  0  0  0  0  0  0
    1.3164    2.0542    2.5981 C   0  0  0  1  0  0  0  0  0  0  0  0
   -9.6569    3.2606    2.5142 C   0  0  0  1  0  0  0  0  0  0  0  0
   -5.7663    1.6899   -0.4385 C   0  0  0  1  0  0  0  0  0  0  0  0
   -2.2883   -1.8176    0.5702 C   0  0  0  1  0  0  0  0  0  0  0  0
  -10.6402    2.2511    1.9292 C   0  0  0  1  0  0  0  0  0  0  0  0
    1.0193    2.5098    1.1617 C   0  0  0  1  0  0  0  0  0  0  0  0
    0.5528    2.7856    3.6864 C   0  0  0  1  0  0  0  0  0  0  0  0
   -0.9240    1.0191    0.6014 C   0  0  0  1  0  0  0  0  0  0  0  0
    0.7704    2.2062    5.0623 C   0  0  0  1  0  0  0  0  0  0  0  0
   -0.3635    2.1997    0.6830 C   0  0  0  1  0  0  0  0  0  0  0  0
   -3.2911    1.7097   -0.0278 C   0  0  0  1  0  0  0  0  0  0  0  0
    0.0075    2.8852    6.1853 C   0  0  0  1  0  0  0  0  0  0  0  0
   -4.2756   -0.3003   -0.0587 C   0  0  0  1  0  0  0  0  0  0  0  0
   -3.1837   -2.9820    0.4761 C   0  0  0  1  0  0  0  0  0  0  0  0
   -3.4864   -3.6301    1.5755 C   0  0  0  1  0  0  0  0  0  0  0  0
   -3.2610   -3.1150    2.9616 C   0  0  0  1  0  0  0  0  0  0  0  0
    0.3203    2.3133    7.5576 C   0  0  0  1  0  0  0  0  0  0  0  0
   -4.5275   -3.1148    3.8124 C   0  0  0  1  0  0  0  0  0  0  0  0
   -4.2562   -2.9235    5.2989 C   0  0  0  1  0  0  0  0  0  0  0  0
   -5.4983   -2.9105    6.1219 C   0  0  0  1  0  0  0  0  0  0  0  0
  -11.5662    3.6754    0.8695 H   0  0  0  1  0  0  0  0  0  0  0  0
  -12.3691    4.4178    6.0227 H   0  0  0  1  0  0  0  0  0  0  0  0
  -10.6616    4.6469    6.3131 H   0  0  0  1  0  0  0  0  0  0  0  0
  -11.3251    3.0323    6.2297 H   0  0  0  1  0  0  0  0  0  0  0  0
  -12.0930    1.4621   -0.4931 H   0  0  0  1  0  0  0  0  0  0  0  0
  -13.3994    2.4037    0.1845 H   0  0  0  1  0  0  0  0  0  0  0  0
  -12.7622    1.0339    1.0629 H   0  0  0  1  0  0  0  0  0  0  0  0
    1.9771    4.1167    1.7904 H   0  0  0  1  0  0  0  0  0  0  0  0
   -9.2634    3.3637    4.5713 H   0  0  0  1  0  0  0  0  0  0  0  0
   -7.8416    3.4325    0.4313 H   0  0  0  1  0  0  0  0  0  0  0  0
   -8.4339    1.7889    0.4763 H   0  0  0  1  0  0  0  0  0  0  0  0
   -7.5586    3.3798    2.8649 H   0  0  0  1  0  0  0  0  0  0  0  0
   -8.1987    1.7538    2.8926 H   0  0  0  1  0  0  0  0  0  0  0  0
   -6.3822    1.0942    1.4683 H   0  0  0  1  0  0  0  0  0  0  0  0
   -5.7923    2.7364    1.3710 H   0  0  0  1  0  0  0  0  0  0  0  0
    2.3619    2.1937    2.7785 H   0  0  0  1  0  0  0  0  0  0  0  0
    1.0773    1.0138    2.6700 H   0  0  0  1  0  0  0  0  0  0  0  0
   -9.7166    4.1666    1.9480 H   0  0  0  1  0  0  0  0  0  0  0  0
   -6.4028    1.0305   -0.9907 H   0  0  0  1  0  0  0  0  0  0  0  0
   -5.6340    2.5999   -0.9855 H   0  0  0  1  0  0  0  0  0  0  0  0
   -1.8923   -1.7805    1.5635 H   0  0  0  1  0  0  0  0  0  0  0  0
   -1.4891   -1.9539   -0.1281 H   0  0  0  1  0  0  0  0  0  0  0  0
    1.7184    2.0288    0.5099 H   0  0  0  1  0  0  0  0  0  0  0  0
   -0.4916    2.7370    3.4592 H   0  0  0  1  0  0  0  0  0  0  0  0
    0.8694    3.8076    3.6948 H   0  0  0  1  0  0  0  0  0  0  0  0
   -0.3165    0.1917    0.7688 H   0  0  0  1  0  0  0  0  0  0  0  0
    1.8147    2.2722    5.2863 H   0  0  0  1  0  0  0  0  0  0  0  0
    0.4748    1.1782    5.0375 H   0  0  0  1  0  0  0  0  0  0  0  0
   -0.9425    3.0096    0.3823 H   0  0  0  1  0  0  0  0  0  0  0  0
   -1.0403    2.7710    6.0011 H   0  0  0  1  0  0  0  0  0  0  0  0
    0.2589    3.9252    6.1859 H   0  0  0  1  0  0  0  0  0  0  0  0
   -3.5678   -3.2843   -0.4419 H   0  0  0  1  0  0  0  0  0  0  0  0
   -3.9151   -4.5724    1.4762 H   0  0  0  1  0  0  0  0  0  0  0  0
   -2.8941   -2.1120    2.8967 H   0  0  0  1  0  0  0  0  0  0  0  0
   -2.5296   -3.7326    3.4397 H   0  0  0  1  0  0  0  0  0  0  0  0
    0.3740    3.1081    8.2720 H   0  0  0  1  0  0  0  0  0  0  0  0
    1.2585    1.7999    7.5243 H   0  0  0  1  0  0  0  0  0  0  0  0
   -0.4513    1.6291    7.8429 H   0  0  0  1  0  0  0  0  0  0  0  0
   -5.0277   -4.0509    3.6766 H   0  0  0  1  0  0  0  0  0  0  0  0
   -5.1607   -2.3197    3.4781 H   0  0  0  1  0  0  0  0  0  0  0  0
   -3.7476   -1.9920    5.4352 H   0  0  0  1  0  0  0  0  0  0  0  0
   -3.6320   -3.7241    5.6370 H   0  0  0  1  0  0  0  0  0  0  0  0
  1 34  1  0  0  0  0
  2  4  1  0  0  0  0
  3  4  1  0  0  0  0
  4  5  1  0  0  0  0
  4 32  1  0  0  0  0
  6 10  1  0  0  0  0
  6 26  1  0  0  0  0
  6 42  1  0  0  0  0
  7  8  1  0  0  0  0
  7  9  2  0  0  0  0
  7 13  1  0  0  0  0
  8 43  1  0  0  0  0
  8 44  1  0  0  0  0
  8 45  1  0  0  0  0
 10 46  1  0  0  0  0
 10 47  1  0  0  0  0
 10 48  1  0  0  0  0
 11 27  1  0  0  0  0
 11 49  1  0  0  0  0
 12 26  2  0  0  0  0
 13 23  1  0  0  0  0
 13 50  1  0  0  0  0
 14 41  1  0  0  0  0
 15 24  1  0  0  0  0
 15 32  4  0  0  0  0
 15 34  4  0  0  0  0
 16 41  2  0  0  0  0
 17 18  1  0  0  0  0
 17 20  1  0  0  0  0
 17 51  1  0  0  0  0
 17 52  1  0  0  0  0
 18 23  1  0  0  0  0
 18 53  1  0  0  0  0
 18 54  1  0  0  0  0
 19 21  4  0  0  0  0
 19 29  1  0  0  0  0
 19 32  4  0  0  0  0
 20 24  1  0  0  0  0
 20 55  1  0  0  0  0
 20 56  1  0  0  0  0
 21 25  1  0  0  0  0
 21 34  4  0  0  0  0
 22 27  1  0  0  0  0
 22 28  1  0  0  0  0
 22 57  1  0  0  0  0
 22 58  1  0  0  0  0
 23 26  1  0  0  0  0
 23 59  1  0  0  0  0
 24 60  1  0  0  0  0
 24 61  1  0  0  0  0
 25 35  1  0  0  0  0
 25 62  1  0  0  0  0
 25 63  1  0  0  0  0
 27 31  1  0  0  0  0
 27 64  1  0  0  0  0
 28 30  1  0  0  0  0
 28 65  1  0  0  0  0
 28 66  1  0  0  0  0
 29 31  2  0  0  0  0
 29 67  1  0  0  0  0
 30 33  1  0  0  0  0
 30 68  1  0  0  0  0
 30 69  1  0  0  0  0
 31 70  1  0  0  0  0
 33 38  1  0  0  0  0
 33 71  1  0  0  0  0
 33 72  1  0  0  0  0
 35 36  2  0  0  0  0
 35 73  1  0  0  0  0
 36 37  1  0  0  0  0
 36 74  1  0  0  0  0
 37 39  1  0  0  0  0
 37 75  1  0  0  0  0
 37 76  1  0  0  0  0
 38 77  1  0  0  0  0
 38 78  1  0  0  0  0
 38 79  1  0  0  0  0
 39 40  1  0  0  0  0
 39 80  1  0  0  0  0
 39 81  1  0  0  0  0
 40 41  1  0  0  0  0
 40 82  1  0  0  0  0
 40 83  1  0  0  0  0
M  END
> <ConfClashScore>
0 

> <ConfOneFourInteractionScore>
-0.991498 

> <ConfScore>
-0.0754086 

> <ConfScorePBest>
0.0064098 

> <ConfTolerance>
1.72531 

$$$$
9548876
  PyMOL2.2          3D                             0

 83 83  0  0  0  0  0  0  0  0999 V2000
   -4.9932   -1.0176   -0.1347 H   0  0  0  1  0  0  0  0  0  0  0  0
   -4.1580    3.5810   -0.4316 H   0  0  0  1  0  0  0  0  0  0  0  0
   -2.4954    3.4159   -0.9425 H   0  0  0  1  0  0  0  0  0  0  0  0
   -3.1948    3.2013   -0.1617 C   0  0  0  1  0  0  0  0  0  0  0  0
   -2.8702    3.6656    0.7461 H   0  0  0  1  0  0  0  0  0  0  0  0
   -9.6739    0.5865   -4.7585 N   0  0  0  1  0  0  0  0  0  0  0  0
  -10.8086    4.3688   -3.6257 C   0  0  0  1  0  0  0  0  0  0  0  0
  -11.2882    5.5594   -2.7986 C   0  0  0  1  0  0  0  0  0  0  0  0
  -11.5793    3.7944   -4.3902 O   0  0  0  1  0  0  0  0  0  0  0  0
  -10.1778   -0.7524   -4.4914 C   0  0  0  1  0  0  0  0  0  0  0  0
    2.0612    2.6585    0.4431 O   0  0  0  1  0  0  0  0  0  0  0  0
  -10.2273    1.3525   -2.7107 O   0  0  0  1  0  0  0  0  0  0  0  0
   -9.5569    3.9375   -3.4078 N   0  0  0  1  0  0  0  0  0  0  0  0
   -7.2472   -5.0012    3.8503 O   0  5  0  1  0  0  0  0  0  0  0  0
   -4.4570    1.0761   -0.1740 N   0  0  0  1  0  0  0  0  0  0  0  0
   -6.1771   -6.6243    5.0121 O   0  0  0  1  0  0  0  0  0  0  0  0
   -7.2683    2.3916   -2.3090 C   0  0  0  1  0  0  0  0  0  0  0  0
   -7.4999    2.6589   -3.7755 C   0  0  0  1  0  0  0  0  0  0  0  0
   -2.3113    0.7731    0.3204 C   0  0  0  1  0  0  0  0  0  0  0  0
   -5.8881    1.8318   -2.0094 C   0  0  0  1  0  0  0  0  0  0  0  0
   -2.9360   -0.4818    0.2782 C   0  0  0  1  0  0  0  0  0  0  0  0
    1.1491    2.9761    2.6127 C   0  0  0  1  0  0  0  0  0  0  0  0
   -8.9823    2.8176   -4.1382 C   0  0  0  1  0  0  0  0  0  0  0  0
   -5.7526    1.6700   -0.5050 C   0  0  0  1  0  0  0  0  0  0  0  0
   -2.2704   -1.8199    0.5264 C   0  0  0  1  0  0  0  0  0  0  0  0
   -9.7149    1.5213   -3.8049 C   0  0  0  1  0  0  0  0  0  0  0  0
    1.1735    2.0712    1.3770 C   0  0  0  1  0  0  0  0  0  0  0  0
    0.1756    2.3959    3.6085 C   0  0  0  1  0  0  0  0  0  0  0  0
   -0.8884    0.8968    0.6217 C   0  0  0  1  0  0  0  0  0  0  0  0
    0.1185    3.1672    4.9130 C   0  0  0  1  0  0  0  0  0  0  0  0
   -0.1896    1.9974    0.7657 C   0  0  0  1  0  0  0  0  0  0  0  0
   -3.2793    1.7271    0.0375 C   0  0  0  1  0  0  0  0  0  0  0  0
   -0.8713    2.6002    5.9002 C   0  0  0  1  0  0  0  0  0  0  0  0
   -4.2673   -0.2803   -0.0302 C   0  0  0  1  0  0  0  0  0  0  0  0
   -1.9030   -2.0051    1.9386 C   0  0  0  1  0  0  0  0  0  0  0  0
   -2.2452   -2.8460    2.8823 C   0  0  0  1  0  0  0  0  0  0  0  0
   -2.9666   -4.1562    2.7117 C   0  0  0  1  0  0  0  0  0  0  0  0
   -0.8225    3.2024    7.2950 C   0  0  0  1  0  0  0  0  0  0  0  0
   -4.2665   -4.2924    3.4937 C   0  0  0  1  0  0  0  0  0  0  0  0
   -4.9924   -5.6020    3.2325 C   0  0  0  1  0  0  0  0  0  0  0  0
   -6.1774   -5.7984    4.1142 C   0  0  0  1  0  0  0  0  0  0  0  0
   -9.3037    0.8028   -5.6397 H   0  0  0  1  0  0  0  0  0  0  0  0
  -11.4319    5.2541   -1.7831 H   0  0  0  1  0  0  0  0  0  0  0  0
  -12.2135    5.9203   -3.1966 H   0  0  0  1  0  0  0  0  0  0  0  0
  -10.5553    6.3380   -2.8363 H   0  0  0  1  0  0  0  0  0  0  0  0
   -9.8228   -1.4245   -5.2444 H   0  0  0  1  0  0  0  0  0  0  0  0
  -11.2477   -0.7391   -4.5012 H   0  0  0  1  0  0  0  0  0  0  0  0
   -9.8335   -1.0780   -3.5320 H   0  0  0  1  0  0  0  0  0  0  0  0
    2.7536    3.1300    0.9119 H   0  0  0  1  0  0  0  0  0  0  0  0
   -9.0105    4.3926   -2.7334 H   0  0  0  1  0  0  0  0  0  0  0  0
   -8.0003    1.6874   -1.9727 H   0  0  0  1  0  0  0  0  0  0  0  0
   -7.3849    3.3109   -1.7740 H   0  0  0  1  0  0  0  0  0  0  0  0
   -7.0989    1.8410   -4.3369 H   0  0  0  1  0  0  0  0  0  0  0  0
   -6.9873    3.5598   -4.0412 H   0  0  0  1  0  0  0  0  0  0  0  0
   -5.1390    2.5059   -2.3692 H   0  0  0  1  0  0  0  0  0  0  0  0
   -5.7723    0.8813   -2.4869 H   0  0  0  1  0  0  0  0  0  0  0  0
    0.8365    3.9606    2.3334 H   0  0  0  1  0  0  0  0  0  0  0  0
    2.1261    3.0213    3.0468 H   0  0  0  1  0  0  0  0  0  0  0  0
   -9.0598    2.9956   -5.1904 H   0  0  0  1  0  0  0  0  0  0  0  0
   -5.8307    2.6296   -0.0382 H   0  0  0  1  0  0  0  0  0  0  0  0
   -6.5347    1.0337   -0.1465 H   0  0  0  1  0  0  0  0  0  0  0  0
   -1.3845   -1.8797   -0.0706 H   0  0  0  1  0  0  0  0  0  0  0  0
   -2.9464   -2.5988    0.2415 H   0  0  0  1  0  0  0  0  0  0  0  0
    1.4979    1.0908    1.6569 H   0  0  0  1  0  0  0  0  0  0  0  0
    0.4685    1.3892    3.8221 H   0  0  0  1  0  0  0  0  0  0  0  0
   -0.8003    2.3985    3.1698 H   0  0  0  1  0  0  0  0  0  0  0  0
   -0.3658    0.0049    0.7360 H   0  0  0  1  0  0  0  0  0  0  0  0
   -0.1584    4.1781    4.6976 H   0  0  0  1  0  0  0  0  0  0  0  0
    1.0906    3.1506    5.3598 H   0  0  0  1  0  0  0  0  0  0  0  0
   -0.6150    2.8849    0.4297 H   0  0  0  1  0  0  0  0  0  0  0  0
   -0.6847    1.5502    5.9879 H   0  0  0  1  0  0  0  0  0  0  0  0
   -1.8545    2.7567    5.5079 H   0  0  0  1  0  0  0  0  0  0  0  0
   -1.2080   -1.3032    2.2642 H   0  0  0  1  0  0  0  0  0  0  0  0
   -1.9912   -2.5799    3.8550 H   0  0  0  1  0  0  0  0  0  0  0  0
   -2.3084   -4.9388    3.0267 H   0  0  0  1  0  0  0  0  0  0  0  0
   -3.1923   -4.2760    1.6727 H   0  0  0  1  0  0  0  0  0  0  0  0
    0.1939    3.4055    7.5609 H   0  0  0  1  0  0  0  0  0  0  0  0
   -1.2433    2.5123    7.9961 H   0  0  0  1  0  0  0  0  0  0  0  0
   -1.3836    4.1134    7.3097 H   0  0  0  1  0  0  0  0  0  0  0  0
   -4.9134   -3.4854    3.2195 H   0  0  0  1  0  0  0  0  0  0  0  0
   -4.0422   -4.2313    4.5381 H   0  0  0  1  0  0  0  0  0  0  0  0
   -4.3089   -6.4088    3.3960 H   0  0  0  1  0  0  0  0  0  0  0  0
   -5.3202   -5.6125    2.2140 H   0  0  0  1  0  0  0  0  0  0  0  0
  1 34  1  0  0  0  0
  2  4  1  0  0  0  0
  3  4  1  0  0  0  0
  4  5  1  0  0  0  0
  4 32  1  0  0  0  0
  6 10  1  0  0  0  0
  6 26  1  0  0  0  0
  6 42  1  0  0  0  0
  7  8  1  0  0  0  0
  7  9  2  0  0  0  0
  7 13  1  0  0  0  0
  8 43  1  0  0  0  0
  8 44  1  0  0  0  0
  8 45  1  0  0  0  0
 10 46  1  0  0  0  0
 10 47  1  0  0  0  0
 10 48  1  0  0  0  0
 11 27  1  0  0  0  0
 11 49  1  0  0  0  0
 12 26  2  0  0  0  0
 13 23  1  0  0  0  0
 13 50  1  0  0  0  0
 14 41  1  0  0  0  0
 15 24  1  0  0  0  0
 15 32  4  0  0  0  0
 15 34  4  0  0  0  0
 16 41  2  0  0  0  0
 17 18  1  0  0  0  0
 17 20  1  0  0  0  0
 17 51  1  0  0  0  0
 17 52  1  0  0  0  0
 18 23  1  0  0  0  0
 18 53  1  0  0  0  0
 18 54  1  0  0  0  0
 19 21  4  0  0  0  0
 19 29  1  0  0  0  0
 19 32  4  0  0  0  0
 20 24  1  0  0  0  0
 20 55  1  0  0  0  0
 20 56  1  0  0  0  0
 21 25  1  0  0  0  0
 21 34  4  0  0  0  0
 22 27  1  0  0  0  0
 22 28  1  0  0  0  0
 22 57  1  0  0  0  0
 22 58  1  0  0  0  0
 23 26  1  0  0  0  0
 23 59  1  0  0  0  0
 24 60  1  0  0  0  0
 24 61  1  0  0  0  0
 25 35  1  0  0  0  0
 25 62  1  0  0  0  0
 25 63  1  0  0  0  0
 27 31  1  0  0  0  0
 27 64  1  0  0  0  0
 28 30  1  0  0  0  0
 28 65  1  0  0  0  0
 28 66  1  0  0  0  0
 29 31  2  0  0  0  0
 29 67  1  0  0  0  0
 30 33  1  0  0  0  0
 30 68  1  0  0  0  0
 30 69  1  0  0  0  0
 31 70  1  0  0  0  0
 33 38  1  0  0  0  0
 33 71  1  0  0  0  0
 33 72  1  0  0  0  0
 35 36  2  0  0  0  0
 35 73  1  0  0  0  0
 36 37  1  0  0  0  0
 36 74  1  0  0  0  0
 37 39  1  0  0  0  0
 37 75  1  0  0  0  0
 37 76  1  0  0  0  0
 38 77  1  0  0  0  0
 38 78  1  0  0  0  0
 38 79  1  0  0  0  0
 39 40  1  0  0  0  0
 39 80  1  0  0  0  0
 39 81  1  0  0  0  0
 40 41  1  0  0  0  0
 40 82  1  0  0  0  0
 40 83  1  0  0  0  0
M  END
> <ConfClashScore>
0 

> <ConfOneFourInteractionScore>
-0.99303 

> <ConfScore>
-0.074063 

> <ConfScorePBest>
0.00638132 

> <ConfTolerance>
1.71308 

$$$$
9548876
  PyMOL2.2          3D                             0

 83 83  0  0  0  0  0  0  0  0999 V2000
   -5.0075   -1.0425   -0.1089 H   0  0  0  1  0  0  0  0  0  0  0  0
   -3.3327    3.6362    0.8219 H   0  0  0  1  0  0  0  0  0  0  0  0
   -3.9024    3.5488   -0.8274 H   0  0  0  1  0  0  0  0  0  0  0  0
   -3.1715    3.1859   -0.1353 C   0  0  0  1  0  0  0  0  0  0  0  0
   -2.1921    3.4358   -0.4863 H   0  0  0  1  0  0  0  0  0  0  0  0
   -7.6820   -3.1091    3.2359 N   0  0  0  1  0  0  0  0  0  0  0  0
  -10.7114   -2.3770    3.2071 C   0  0  0  1  0  0  0  0  0  0  0  0
  -11.9861   -2.1845    4.0054 C   0  0  0  1  0  0  0  0  0  0  0  0
  -10.3112   -3.5002    2.9042 O   0  0  0  1  0  0  0  0  0  0  0  0
   -6.7685   -3.7492    4.1707 C   0  0  0  1  0  0  0  0  0  0  0  0
    1.9267    1.2366    0.8364 O   0  0  0  1  0  0  0  0  0  0  0  0
   -6.8036   -1.0408    3.4292 O   0  0  0  1  0  0  0  0  0  0  0  0
  -10.0645   -1.2533    2.8620 N   0  0  0  1  0  0  0  0  0  0  0  0
    4.7563   -2.6789    0.7396 O   0  5  0  1  0  0  0  0  0  0  0  0
   -4.4719    1.0495   -0.2040 N   0  0  0  1  0  0  0  0  0  0  0  0
    4.0770   -1.0829    2.2113 O   0  0  0  1  0  0  0  0  0  0  0  0
   -7.2003    0.2488    0.8187 C   0  0  0  1  0  0  0  0  0  0  0  0
   -8.4523    0.1399    1.6533 C   0  0  0  1  0  0  0  0  0  0  0  0
   -2.3234    0.7593    0.2861 C   0  0  0  1  0  0  0  0  0  0  0  0
   -6.7658    1.6838    0.5686 C   0  0  0  1  0  0  0  0  0  0  0  0
   -2.9482   -0.4964    0.2791 C   0  0  0  1  0  0  0  0  0  0  0  0
    1.7136    3.3099   -0.3487 C   0  0  0  1  0  0  0  0  0  0  0  0
   -8.8044   -1.2739    2.1343 C   0  0  0  1  0  0  0  0  0  0  0  0
   -5.7455    1.6854   -0.5427 C   0  0  0  1  0  0  0  0  0  0  0  0
   -2.2830   -1.8237    0.5566 C   0  0  0  1  0  0  0  0  0  0  0  0
   -7.6756   -1.7903    3.0216 C   0  0  0  1  0  0  0  0  0  0  0  0
    1.1760    2.4293    0.7898 C   0  0  0  1  0  0  0  0  0  0  0  0
    3.1999    3.6024   -0.2334 C   0  0  0  1  0  0  0  0  0  0  0  0
   -0.9212    1.0658    0.5541 C   0  0  0  1  0  0  0  0  0  0  0  0
    3.7410    4.4378   -1.3835 C   0  0  0  1  0  0  0  0  0  0  0  0
   -0.2938    2.2136    0.6152 C   0  0  0  1  0  0  0  0  0  0  0  0
   -3.2932    1.7058   -0.0155 C   0  0  0  1  0  0  0  0  0  0  0  0
    5.2402    4.6747   -1.3029 C   0  0  0  1  0  0  0  0  0  0  0  0
   -4.2812   -0.3027   -0.0270 C   0  0  0  1  0  0  0  0  0  0  0  0
   -1.6911   -2.4288   -0.6767 C   0  0  0  1  0  0  0  0  0  0  0  0
   -0.4660   -2.9209   -0.8177 C   0  0  0  1  0  0  0  0  0  0  0  0
    0.3952   -3.2259    0.3786 C   0  0  0  1  0  0  0  0  0  0  0  0
    5.7965    5.4278   -2.5003 C   0  0  0  1  0  0  0  0  0  0  0  0
    1.7651   -2.5634    0.3121 C   0  0  0  1  0  0  0  0  0  0  0  0
    2.5570   -2.8350    1.5807 C   0  0  0  1  0  0  0  0  0  0  0  0
    3.8490   -2.0928    1.5660 C   0  0  0  1  0  0  0  0  0  0  0  0
   -8.3241   -3.6647    2.7467 H   0  0  0  1  0  0  0  0  0  0  0  0
  -11.7531   -1.7331    4.9471 H   0  0  0  1  0  0  0  0  0  0  0  0
  -12.4500   -3.1345    4.1706 H   0  0  0  1  0  0  0  0  0  0  0  0
  -12.6547   -1.5502    3.4618 H   0  0  0  1  0  0  0  0  0  0  0  0
   -6.9766   -4.7979    4.2119 H   0  0  0  1  0  0  0  0  0  0  0  0
   -6.8965   -3.3219    5.1432 H   0  0  0  1  0  0  0  0  0  0  0  0
   -5.7608   -3.5984    3.8440 H   0  0  0  1  0  0  0  0  0  0  0  0
    1.4089    0.5484    1.2604 H   0  0  0  1  0  0  0  0  0  0  0  0
  -10.4541   -0.3885    3.1086 H   0  0  0  1  0  0  0  0  0  0  0  0
   -7.3803   -0.2206   -0.1259 H   0  0  0  1  0  0  0  0  0  0  0  0
   -6.4087   -0.2617    1.3262 H   0  0  0  1  0  0  0  0  0  0  0  0
   -9.2712    0.5022    1.0677 H   0  0  0  1  0  0  0  0  0  0  0  0
   -8.3281    0.7602    2.5162 H   0  0  0  1  0  0  0  0  0  0  0  0
   -6.3317    2.0901    1.4582 H   0  0  0  1  0  0  0  0  0  0  0  0
   -7.6121    2.2729    0.2829 H   0  0  0  1  0  0  0  0  0  0  0  0
    1.1832    4.2391   -0.3382 H   0  0  0  1  0  0  0  0  0  0  0  0
    1.5375    2.8085   -1.2774 H   0  0  0  1  0  0  0  0  0  0  0  0
   -8.8912   -1.9137    1.2811 H   0  0  0  1  0  0  0  0  0  0  0  0
   -6.1642    1.1675   -1.3802 H   0  0  0  1  0  0  0  0  0  0  0  0
   -5.5490    2.7018   -0.8132 H   0  0  0  1  0  0  0  0  0  0  0  0
   -3.0123   -2.4978    0.9548 H   0  0  0  1  0  0  0  0  0  0  0  0
   -1.5041   -1.6750    1.2750 H   0  0  0  1  0  0  0  0  0  0  0  0
    1.3178    2.9665    1.7042 H   0  0  0  1  0  0  0  0  0  0  0  0
    3.7281    2.6720   -0.2120 H   0  0  0  1  0  0  0  0  0  0  0  0
    3.3716    4.1317    0.6805 H   0  0  0  1  0  0  0  0  0  0  0  0
   -0.3206    0.2341    0.7248 H   0  0  0  1  0  0  0  0  0  0  0  0
    3.2466    5.3867   -1.3755 H   0  0  0  1  0  0  0  0  0  0  0  0
    3.5265    3.9310   -2.3012 H   0  0  0  1  0  0  0  0  0  0  0  0
   -0.8812    3.0680    0.5335 H   0  0  0  1  0  0  0  0  0  0  0  0
    5.7309    3.7259   -1.2411 H   0  0  0  1  0  0  0  0  0  0  0  0
    5.4470    5.2420   -0.4194 H   0  0  0  1  0  0  0  0  0  0  0  0
   -2.3059   -2.4683   -1.5146 H   0  0  0  1  0  0  0  0  0  0  0  0
   -0.0945   -3.0990   -1.7726 H   0  0  0  1  0  0  0  0  0  0  0  0
    0.5319   -4.2855    0.4386 H   0  0  0  1  0  0  0  0  0  0  0  0
   -0.1079   -2.8804    1.2575 H   0  0  0  1  0  0  0  0  0  0  0  0
    5.1898    6.2874   -2.6950 H   0  0  0  1  0  0  0  0  0  0  0  0
    5.7926    4.7873   -3.3574 H   0  0  0  1  0  0  0  0  0  0  0  0
    6.7988    5.7389   -2.2915 H   0  0  0  1  0  0  0  0  0  0  0  0
    1.6387   -1.5072    0.1967 H   0  0  0  1  0  0  0  0  0  0  0  0
    2.3027   -2.9527   -0.5272 H   0  0  0  1  0  0  0  0  0  0  0  0
    2.7558   -3.8839    1.6525 H   0  0  0  1  0  0  0  0  0  0  0  0
    1.9821   -2.5217    2.4270 H   0  0  0  1  0  0  0  0  0  0  0  0
  1 34  1  0  0  0  0
  2  4  1  0  0  0  0
  3  4  1  0  0  0  0
  4  5  1  0  0  0  0
  4 32  1  0  0  0  0
  6 10  1  0  0  0  0
  6 26  1  0  0  0  0
  6 42  1  0  0  0  0
  7  8  1  0  0  0  0
  7  9  2  0  0  0  0
  7 13  1  0  0  0  0
  8 43  1  0  0  0  0
  8 44  1  0  0  0  0
  8 45  1  0  0  0  0
 10 46  1  0  0  0  0
 10 47  1  0  0  0  0
 10 48  1  0  0  0  0
 11 27  1  0  0  0  0
 11 49  1  0  0  0  0
 12 26  2  0  0  0  0
 13 23  1  0  0  0  0
 13 50  1  0  0  0  0
 14 41  1  0  0  0  0
 15 24  1  0  0  0  0
 15 32  4  0  0  0  0
 15 34  4  0  0  0  0
 16 41  2  0  0  0  0
 17 18  1  0  0  0  0
 17 20  1  0  0  0  0
 17 51  1  0  0  0  0
 17 52  1  0  0  0  0
 18 23  1  0  0  0  0
 18 53  1  0  0  0  0
 18 54  1  0  0  0  0
 19 21  4  0  0  0  0
 19 29  1  0  0  0  0
 19 32  4  0  0  0  0
 20 24  1  0  0  0  0
 20 55  1  0  0  0  0
 20 56  1  0  0  0  0
 21 25  1  0  0  0  0
 21 34  4  0  0  0  0
 22 27  1  0  0  0  0
 22 28  1  0  0  0  0
 22 57  1  0  0  0  0
 22 58  1  0  0  0  0
 23 26  1  0  0  0  0
 23 59  1  0  0  0  0
 24 60  1  0  0  0  0
 24 61  1  0  0  0  0
 25 35  1  0  0  0  0
 25 62  1  0  0  0  0
 25 63  1  0  0  0  0
 27 31  1  0  0  0  0
 27 64  1  0  0  0  0
 28 30  1  0  0  0  0
 28 65  1  0  0  0  0
 28 66  1  0  0  0  0
 29 31  2  0  0  0  0
 29 67  1  0  0  0  0
 30 33  1  0  0  0  0
 30 68  1  0  0  0  0
 30 69  1  0  0  0  0
 31 70  1  0  0  0  0
 33 38  1  0  0  0  0
 33 71  1  0  0  0  0
 33 72  1  0  0  0  0
 35 36  2  0  0  0  0
 35 73  1  0  0  0  0
 36 37  1  0  0  0  0
 36 74  1  0  0  0  0
 37 39  1  0  0  0  0
 37 75  1  0  0  0  0
 37 76  1  0  0  0  0
 38 77  1  0  0  0  0
 38 78  1  0  0  0  0
 38 79  1  0  0  0  0
 39 40  1  0  0  0  0
 39 80  1  0  0  0  0
 39 81  1  0  0  0  0
 40 41  1  0  0  0  0
 40 82  1  0  0  0  0
 40 83  1  0  0  0  0
M  END
> <ConfClashScore>
0 

> <ConfOneFourInteractionScore>
-0.993228 

> <ConfScore>
-0.0735208 

> <ConfScorePBest>
0.00635284 

> <ConfTolerance>
1.78458 

$$$$
9548876
  PyMOL2.2          3D                             0

 83 83  0  0  0  0  0  0  0  0999 V2000
   -5.0084   -1.0192   -0.1171 H   0  0  0  1  0  0  0  0  0  0  0  0
   -2.2460    3.4481   -0.5606 H   0  0  0  1  0  0  0  0  0  0  0  0
   -3.2830    3.6229    0.8346 H   0  0  0  1  0  0  0  0  0  0  0  0
   -3.1893    3.1778   -0.1339 C   0  0  0  1  0  0  0  0  0  0  0  0
   -3.9793    3.5270   -0.7654 H   0  0  0  1  0  0  0  0  0  0  0  0
   -2.8483    1.7790   -6.2340 N   0  0  0  1  0  0  0  0  0  0  0  0
   -3.9410    4.3456   -7.2852 C   0  0  0  1  0  0  0  0  0  0  0  0
   -4.6368    4.7324   -8.5758 C   0  0  0  1  0  0  0  0  0  0  0  0
   -2.7465    4.5811   -7.1085 O   0  0  0  1  0  0  0  0  0  0  0  0
   -1.6674    0.9687   -6.4923 C   0  0  0  1  0  0  0  0  0  0  0  0
    1.6514    1.4341    1.7506 O   0  0  0  1  0  0  0  0  0  0  0  0
   -2.0134    2.7597   -4.4003 O   0  0  0  1  0  0  0  0  0  0  0  0
   -4.7100    3.7387   -6.3673 N   0  0  0  1  0  0  0  0  0  0  0  0
   -6.4725   -5.5837   -3.4773 O   0  5  0  1  0  0  0  0  0  0  0  0
   -4.4551    1.0686   -0.2031 N   0  0  0  1  0  0  0  0  0  0  0  0
   -7.2261   -4.1333   -1.9185 O   0  0  0  1  0  0  0  0  0  0  0  0
   -5.0427    2.5903   -2.7739 C   0  0  0  1  0  0  0  0  0  0  0  0
   -5.2419    2.5589   -4.2689 C   0  0  0  1  0  0  0  0  0  0  0  0
   -2.3097    0.7583    0.2885 C   0  0  0  1  0  0  0  0  0  0  0  0
   -6.0465    1.7382   -2.0142 C   0  0  0  1  0  0  0  0  0  0  0  0
   -2.9450   -0.4920    0.2756 C   0  0  0  1  0  0  0  0  0  0  0  0
    2.1419    2.6300   -0.2386 C   0  0  0  1  0  0  0  0  0  0  0  0
   -4.2196    3.4094   -5.0373 C   0  0  0  1  0  0  0  0  0  0  0  0
   -5.7228    1.7165   -0.5409 C   0  0  0  1  0  0  0  0  0  0  0  0
   -2.2914   -1.8261    0.5485 C   0  0  0  1  0  0  0  0  0  0  0  0
   -2.9373    2.5951   -5.1799 C   0  0  0  1  0  0  0  0  0  0  0  0
    1.1381    2.4345    0.8909 C   0  0  0  1  0  0  0  0  0  0  0  0
    1.5742    3.6336   -1.2114 C   0  0  0  1  0  0  0  0  0  0  0  0
   -0.8969    0.9971    0.5666 C   0  0  0  1  0  0  0  0  0  0  0  0
    2.4730    3.9909   -2.3796 C   0  0  0  1  0  0  0  0  0  0  0  0
   -0.2057    2.0849    0.3349 C   0  0  0  1  0  0  0  0  0  0  0  0
   -3.2711    1.7141   -0.0105 C   0  0  0  1  0  0  0  0  0  0  0  0
    1.8429    4.9821   -3.3431 C   0  0  0  1  0  0  0  0  0  0  0  0
   -4.2759   -0.2859   -0.0314 C   0  0  0  1  0  0  0  0  0  0  0  0
   -2.8583   -2.6468    1.6631 C   0  0  0  1  0  0  0  0  0  0  0  0
   -3.3458   -3.8746    1.5298 C   0  0  0  1  0  0  0  0  0  0  0  0
   -3.4553   -4.5243    0.1869 C   0  0  0  1  0  0  0  0  0  0  0  0
    0.6495    4.4158   -4.0952 C   0  0  0  1  0  0  0  0  0  0  0  0
   -4.8483   -4.4118   -0.4185 C   0  0  0  1  0  0  0  0  0  0  0  0
   -4.9167   -4.8778   -1.8637 C   0  0  0  1  0  0  0  0  0  0  0  0
   -6.3123   -4.7974   -2.3793 C   0  0  0  1  0  0  0  0  0  0  0  0
   -3.6046    1.7243   -6.8549 H   0  0  0  1  0  0  0  0  0  0  0  0
   -5.6850    4.8489   -8.3954 H   0  0  0  1  0  0  0  0  0  0  0  0
   -4.4839    3.9659   -9.3067 H   0  0  0  1  0  0  0  0  0  0  0  0
   -4.2324    5.6552   -8.9360 H   0  0  0  1  0  0  0  0  0  0  0  0
   -1.6917    0.6136   -7.5014 H   0  0  0  1  0  0  0  0  0  0  0  0
   -1.6534    0.1352   -5.8214 H   0  0  0  1  0  0  0  0  0  0  0  0
   -0.7890    1.5614   -6.3441 H   0  0  0  1  0  0  0  0  0  0  0  0
    1.8934    0.6616    1.2347 H   0  0  0  1  0  0  0  0  0  0  0  0
   -5.6337    3.5095   -6.6010 H   0  0  0  1  0  0  0  0  0  0  0  0
   -5.1360    3.6027   -2.4404 H   0  0  0  1  0  0  0  0  0  0  0  0
   -4.0588    2.2314   -2.5551 H   0  0  0  1  0  0  0  0  0  0  0  0
   -6.2225    2.9266   -4.4883 H   0  0  0  1  0  0  0  0  0  0  0  0
   -5.1579    1.5453   -4.6012 H   0  0  0  1  0  0  0  0  0  0  0  0
   -6.0171    0.7386   -2.3947 H   0  0  0  1  0  0  0  0  0  0  0  0
   -7.0268    2.1443   -2.1522 H   0  0  0  1  0  0  0  0  0  0  0  0
    2.3103    1.6985   -0.7375 H   0  0  0  1  0  0  0  0  0  0  0  0
    3.0661    2.9946    0.1585 H   0  0  0  1  0  0  0  0  0  0  0  0
   -4.0148    4.3018   -4.4836 H   0  0  0  1  0  0  0  0  0  0  0  0
   -5.6831    2.7278   -0.1935 H   0  0  0  1  0  0  0  0  0  0  0  0
   -6.5085    1.1956   -0.0348 H   0  0  0  1  0  0  0  0  0  0  0  0
   -1.2625   -1.6403    0.7762 H   0  0  0  1  0  0  0  0  0  0  0  0
   -2.3597   -2.4077   -0.3470 H   0  0  0  1  0  0  0  0  0  0  0  0
    1.0510    3.3579    1.4246 H   0  0  0  1  0  0  0  0  0  0  0  0
    1.3626    4.5327   -0.6714 H   0  0  0  1  0  0  0  0  0  0  0  0
    0.6647    3.2316   -1.6064 H   0  0  0  1  0  0  0  0  0  0  0  0
   -0.3765    0.2083    1.0010 H   0  0  0  1  0  0  0  0  0  0  0  0
    2.7032    3.0947   -2.9170 H   0  0  0  1  0  0  0  0  0  0  0  0
    3.3753    4.4184   -1.9950 H   0  0  0  1  0  0  0  0  0  0  0  0
   -0.6381    2.7814   -0.3050 H   0  0  0  1  0  0  0  0  0  0  0  0
    2.5832    5.2795   -4.0561 H   0  0  0  1  0  0  0  0  0  0  0  0
    1.5189    5.8368   -2.7869 H   0  0  0  1  0  0  0  0  0  0  0  0
   -2.8717   -2.2243    2.6132 H   0  0  0  1  0  0  0  0  0  0  0  0
   -3.6574   -4.3944    2.3749 H   0  0  0  1  0  0  0  0  0  0  0  0
   -3.2110   -5.5610    0.2892 H   0  0  0  1  0  0  0  0  0  0  0  0
   -2.7572   -4.0566   -0.4756 H   0  0  0  1  0  0  0  0  0  0  0  0
    0.2524    5.1633   -4.7497 H   0  0  0  1  0  0  0  0  0  0  0  0
   -0.1036    4.1177   -3.3960 H   0  0  0  1  0  0  0  0  0  0  0  0
    0.9597    3.5678   -4.6692 H   0  0  0  1  0  0  0  0  0  0  0  0
   -5.1543   -3.3873   -0.3775 H   0  0  0  1  0  0  0  0  0  0  0  0
   -5.5199   -5.0087    0.1625 H   0  0  0  1  0  0  0  0  0  0  0  0
   -4.5791   -5.8914   -1.9219 H   0  0  0  1  0  0  0  0  0  0  0  0
   -4.2849   -4.2560   -2.4630 H   0  0  0  1  0  0  0  0  0  0  0  0
  1 34  1  0  0  0  0
  2  4  1  0  0  0  0
  3  4  1  0  0  0  0
  4  5  1  0  0  0  0
  4 32  1  0  0  0  0
  6 10  1  0  0  0  0
  6 26  1  0  0  0  0
  6 42  1  0  0  0  0
  7  8  1  0  0  0  0
  7  9  2  0  0  0  0
  7 13  1  0  0  0  0
  8 43  1  0  0  0  0
  8 44  1  0  0  0  0
  8 45  1  0  0  0  0
 10 46  1  0  0  0  0
 10 47  1  0  0  0  0
 10 48  1  0  0  0  0
 11 27  1  0  0  0  0
 11 49  1  0  0  0  0
 12 26  2  0  0  0  0
 13 23  1  0  0  0  0
 13 50  1  0  0  0  0
 14 41  1  0  0  0  0
 15 24  1  0  0  0  0
 15 32  4  0  0  0  0
 15 34  4  0  0  0  0
 16 41  2  0  0  0  0
 17 18  1  0  0  0  0
 17 20  1  0  0  0  0
 17 51  1  0  0  0  0
 17 52  1  0  0  0  0
 18 23  1  0  0  0  0
 18 53  1  0  0  0  0
 18 54  1  0  0  0  0
 19 21  4  0  0  0  0
 19 29  1  0  0  0  0
 19 32  4  0  0  0  0
 20 24  1  0  0  0  0
 20 55  1  0  0  0  0
 20 56  1  0  0  0  0
 21 25  1  0  0  0  0
 21 34  4  0  0  0  0
 22 27  1  0  0  0  0
 22 28  1  0  0  0  0
 22 57  1  0  0  0  0
 22 58  1  0  0  0  0
 23 26  1  0  0  0  0
 23 59  1  0  0  0  0
 24 60  1  0  0  0  0
 24 61  1  0  0  0  0
 25 35  1  0  0  0  0
 25 62  1  0  0  0  0
 25 63  1  0  0  0  0
 27 31  1  0  0  0  0
 27 64  1  0  0  0  0
 28 30  1  0  0  0  0
 28 65  1  0  0  0  0
 28 66  1  0  0  0  0
 29 31  2  0  0  0  0
 29 67  1  0  0  0  0
 30 33  1  0  0  0  0
 30 68  1  0  0  0  0
 30 69  1  0  0  0  0
 31 70  1  0  0  0  0
 33 38  1  0  0  0  0
 33 71  1  0  0  0  0
 33 72  1  0  0  0  0
 35 36  2  0  0  0  0
 35 73  1  0  0  0  0
 36 37  1  0  0  0  0
 36 74  1  0  0  0  0
 37 39  1  0  0  0  0
 37 75  1  0  0  0  0
 37 76  1  0  0  0  0
 38 77  1  0  0  0  0
 38 78  1  0  0  0  0
 38 79  1  0  0  0  0
 39 40  1  0  0  0  0
 39 80  1  0  0  0  0
 39 81  1  0  0  0  0
 40 41  1  0  0  0  0
 40 82  1  0  0  0  0
 40 83  1  0  0  0  0
M  END
> <ConfClashScore>
0 

> <ConfOneFourInteractionScore>
-0.986216 

> <ConfScore>
-0.0729817 

> <ConfScorePBest>
0.00632436 

> <ConfTolerance>
2.18946 

$$$$
9548876
  PyMOL2.2          3D                             0

 83 83  0  0  0  0  0  0  0  0999 V2000
   -5.0054   -1.0407   -0.1129 H   0  0  0  1  0  0  0  0  0  0  0  0
   -2.1684    3.4465   -0.3949 H   0  0  0  1  0  0  0  0  0  0  0  0
   -3.4248    3.6430    0.8032 H   0  0  0  1  0  0  0  0  0  0  0  0
   -3.1735    3.1895   -0.1328 C   0  0  0  1  0  0  0  0  0  0  0  0
   -3.8409    3.5421   -0.8911 H   0  0  0  1  0  0  0  0  0  0  0  0
  -10.9736    3.8456   -0.7095 N   0  0  0  1  0  0  0  0  0  0  0  0
  -10.5837    5.9109    2.9202 C   0  0  0  1  0  0  0  0  0  0  0  0
  -11.4291    6.1301    4.1597 C   0  0  0  1  0  0  0  0  0  0  0  0
  -10.1501    6.8575    2.2688 O   0  0  0  1  0  0  0  0  0  0  0  0
  -11.8878    3.1568   -1.6082 C   0  0  0  1  0  0  0  0  0  0  0  0
    2.4079    0.4656    0.4136 O   0  0  0  1  0  0  0  0  0  0  0  0
  -11.2363    2.4132    1.0126 O   0  0  0  1  0  0  0  0  0  0  0  0
  -10.3501    4.6383    2.5957 N   0  0  0  1  0  0  0  0  0  0  0  0
   -4.9701   -9.0831   -0.7362 O   0  5  0  1  0  0  0  0  0  0  0  0
   -4.4718    1.0519   -0.2049 N   0  0  0  1  0  0  0  0  0  0  0  0
   -3.4315   -8.6107   -2.3437 O   0  0  0  1  0  0  0  0  0  0  0  0
   -7.8524    2.7758    0.3615 C   0  0  0  1  0  0  0  0  0  0  0  0
   -8.4879    3.4019    1.5557 C   0  0  0  1  0  0  0  0  0  0  0  0
   -2.3232    0.7630    0.2853 C   0  0  0  1  0  0  0  0  0  0  0  0
   -6.5722    2.0245    0.6849 C   0  0  0  1  0  0  0  0  0  0  0  0
   -2.9467   -0.4932    0.2763 C   0  0  0  1  0  0  0  0  0  0  0  0
    1.3488    1.8664    1.9743 C   0  0  0  1  0  0  0  0  0  0  0  0
   -9.7427    4.2580    1.3291 C   0  0  0  1  0  0  0  0  0  0  0  0
   -5.7459    1.6870   -0.5430 C   0  0  0  1  0  0  0  0  0  0  0  0
   -2.2874   -1.8062    0.5491 C   0  0  0  1  0  0  0  0  0  0  0  0
  -10.7478    3.4256    0.5385 C   0  0  0  1  0  0  0  0  0  0  0  0
    1.3679    0.4605    1.3944 C   0  0  0  1  0  0  0  0  0  0  0  0
    0.3184    1.9764    3.0877 C   0  0  0  1  0  0  0  0  0  0  0  0
   -0.9123    1.0158    0.5613 C   0  0  0  1  0  0  0  0  0  0  0  0
    0.3379    3.3654    3.7046 C   0  0  0  1  0  0  0  0  0  0  0  0
    0.0276    0.1366    0.8148 C   0  0  0  1  0  0  0  0  0  0  0  0
   -3.2937    1.7090   -0.0152 C   0  0  0  1  0  0  0  0  0  0  0  0
   -0.7013    3.5563    4.7814 C   0  0  0  1  0  0  0  0  0  0  0  0
   -4.2798   -0.3004   -0.0298 C   0  0  0  1  0  0  0  0  0  0  0  0
   -1.6345   -2.5534   -0.5701 C   0  0  0  1  0  0  0  0  0  0  0  0
   -1.6476   -3.8376   -0.8373 C   0  0  0  1  0  0  0  0  0  0  0  0
   -2.6014   -4.8322   -0.2334 C   0  0  0  1  0  0  0  0  0  0  0  0
   -0.2456    3.2332    6.1950 C   0  0  0  1  0  0  0  0  0  0  0  0
   -2.6908   -6.1300   -1.0256 C   0  0  0  1  0  0  0  0  0  0  0  0
   -3.8124   -7.0336   -0.5702 C   0  0  0  1  0  0  0  0  0  0  0  0
   -4.0253   -8.3011   -1.3239 C   0  0  0  1  0  0  0  0  0  0  0  0
  -10.5073    4.6454   -1.0310 H   0  0  0  1  0  0  0  0  0  0  0  0
  -11.3107    7.1379    4.4992 H   0  0  0  1  0  0  0  0  0  0  0  0
  -11.1154    5.4557    4.9289 H   0  0  0  1  0  0  0  0  0  0  0  0
  -12.4578    5.9513    3.9257 H   0  0  0  1  0  0  0  0  0  0  0  0
  -11.3706    2.3617   -2.1033 H   0  0  0  1  0  0  0  0  0  0  0  0
  -12.2602    3.8473   -2.3358 H   0  0  0  1  0  0  0  0  0  0  0  0
  -12.7048    2.7549   -1.0461 H   0  0  0  1  0  0  0  0  0  0  0  0
    2.9440    1.2549    0.5192 H   0  0  0  1  0  0  0  0  0  0  0  0
  -10.5961    3.9350    3.2323 H   0  0  0  1  0  0  0  0  0  0  0  0
   -7.6242    3.5466   -0.3446 H   0  0  0  1  0  0  0  0  0  0  0  0
   -8.5486    2.0887   -0.0722 H   0  0  0  1  0  0  0  0  0  0  0  0
   -7.7531    4.0277    2.0176 H   0  0  0  1  0  0  0  0  0  0  0  0
   -8.7565    2.6121    2.2258 H   0  0  0  1  0  0  0  0  0  0  0  0
   -6.8303    1.1124    1.1813 H   0  0  0  1  0  0  0  0  0  0  0  0
   -5.9787    2.6305    1.3372 H   0  0  0  1  0  0  0  0  0  0  0  0
    1.1037    2.5623    1.1994 H   0  0  0  1  0  0  0  0  0  0  0  0
    2.3167    2.0966    2.3681 H   0  0  0  1  0  0  0  0  0  0  0  0
   -9.4797    5.1284    0.7651 H   0  0  0  1  0  0  0  0  0  0  0  0
   -6.3083    1.0194   -1.1618 H   0  0  0  1  0  0  0  0  0  0  0  0
   -5.5467    2.5902   -1.0810 H   0  0  0  1  0  0  0  0  0  0  0  0
   -3.0374   -2.4512    0.9570 H   0  0  0  1  0  0  0  0  0  0  0  0
   -1.5317   -1.6270    1.2851 H   0  0  0  1  0  0  0  0  0  0  0  0
    1.5936   -0.2371    2.1736 H   0  0  0  1  0  0  0  0  0  0  0  0
    0.5409    1.2533    3.8443 H   0  0  0  1  0  0  0  0  0  0  0  0
   -0.6545    1.7848    2.6855 H   0  0  0  1  0  0  0  0  0  0  0  0
   -0.6167    2.0129    0.5565 H   0  0  0  1  0  0  0  0  0  0  0  0
    0.1603    4.0828    2.9308 H   0  0  0  1  0  0  0  0  0  0  0  0
    1.3043    3.5332    4.1322 H   0  0  0  1  0  0  0  0  0  0  0  0
   -0.1742   -0.8600    0.5964 H   0  0  0  1  0  0  0  0  0  0  0  0
   -1.5341    2.9251    4.5512 H   0  0  0  1  0  0  0  0  0  0  0  0
   -1.0125    4.5798    4.7613 H   0  0  0  1  0  0  0  0  0  0  0  0
   -1.0894   -1.9682   -1.2349 H   0  0  0  1  0  0  0  0  0  0  0  0
   -0.9465   -4.1948   -1.5173 H   0  0  0  1  0  0  0  0  0  0  0  0
   -3.5748   -4.3898   -0.1936 H   0  0  0  1  0  0  0  0  0  0  0  0
   -2.2721   -5.0609    0.7587 H   0  0  0  1  0  0  0  0  0  0  0  0
   -1.0636    3.3632    6.8724 H   0  0  0  1  0  0  0  0  0  0  0  0
    0.5533    3.8894    6.4707 H   0  0  0  1  0  0  0  0  0  0  0  0
    0.0942    2.2194    6.2370 H   0  0  0  1  0  0  0  0  0  0  0  0
   -1.7658   -6.6571   -0.9187 H   0  0  0  1  0  0  0  0  0  0  0  0
   -2.8470   -5.8882   -2.0562 H   0  0  0  1  0  0  0  0  0  0  0  0
   -4.7205   -6.4705   -0.6277 H   0  0  0  1  0  0  0  0  0  0  0  0
   -3.6186   -7.2958    0.4489 H   0  0  0  1  0  0  0  0  0  0  0  0
  1 34  1  0  0  0  0
  2  4  1  0  0  0  0
  3  4  1  0  0  0  0
  4  5  1  0  0  0  0
  4 32  1  0  0  0  0
  6 10  1  0  0  0  0
  6 26  1  0  0  0  0
  6 42  1  0  0  0  0
  7  8  1  0  0  0  0
  7  9  2  0  0  0  0
  7 13  1  0  0  0  0
  8 43  1  0  0  0  0
  8 44  1  0  0  0  0
  8 45  1  0  0  0  0
 10 46  1  0  0  0  0
 10 47  1  0  0  0  0
 10 48  1  0  0  0  0
 11 27  1  0  0  0  0
 11 49  1  0  0  0  0
 12 26  2  0  0  0  0
 13 23  1  0  0  0  0
 13 50  1  0  0  0  0
 14 41  1  0  0  0  0
 15 24  1  0  0  0  0
 15 32  4  0  0  0  0
 15 34  4  0  0  0  0
 16 41  2  0  0  0  0
 17 18  1  0  0  0  0
 17 20  1  0  0  0  0
 17 51  1  0  0  0  0
 17 52  1  0  0  0  0
 18 23  1  0  0  0  0
 18 53  1  0  0  0  0
 18 54  1  0  0  0  0
 19 21  4  0  0  0  0
 19 29  1  0  0  0  0
 19 32  4  0  0  0  0
 20 24  1  0  0  0  0
 20 55  1  0  0  0  0
 20 56  1  0  0  0  0
 21 25  1  0  0  0  0
 21 34  4  0  0  0  0
 22 27  1  0  0  0  0
 22 28  1  0  0  0  0
 22 57  1  0  0  0  0
 22 58  1  0  0  0  0
 23 26  1  0  0  0  0
 23 59  1  0  0  0  0
 24 60  1  0  0  0  0
 24 61  1  0  0  0  0
 25 35  1  0  0  0  0
 25 62  1  0  0  0  0
 25 63  1  0  0  0  0
 27 31  1  0  0  0  0
 27 64  1  0  0  0  0
 28 30  1  0  0  0  0
 28 65  1  0  0  0  0
 28 66  1  0  0  0  0
 29 31  2  0  0  0  0
 29 67  1  0  0  0  0
 30 33  1  0  0  0  0
 30 68  1  0  0  0  0
 30 69  1  0  0  0  0
 31 70  1  0  0  0  0
 33 38  1  0  0  0  0
 33 71  1  0  0  0  0
 33 72  1  0  0  0  0
 35 36  2  0  0  0  0
 35 73  1  0  0  0  0
 36 37  1  0  0  0  0
 36 74  1  0  0  0  0
 37 39  1  0  0  0  0
 37 75  1  0  0  0  0
 37 76  1  0  0  0  0
 38 77  1  0  0  0  0
 38 78  1  0  0  0  0
 38 79  1  0  0  0  0
 39 40  1  0  0  0  0
 39 80  1  0  0  0  0
 39 81  1  0  0  0  0
 40 41  1  0  0  0  0
 40 82  1  0  0  0  0
 40 83  1  0  0  0  0
M  END
> <ConfClashScore>
0 

> <ConfOneFourInteractionScore>
-0.991192 

> <ConfScore>
-0.0680738 

> <ConfScorePBest>
0.00629587 

> <ConfTolerance>
1.7773 

$$$$
9548876
  PyMOL2.2          3D                             0

 83 83  0  0  0  0  0  0  0  0999 V2000
   -5.0109   -1.0252   -0.1380 H   0  0  0  1  0  0  0  0  0  0  0  0
   -2.9264    3.4424   -1.1526 H   0  0  0  1  0  0  0  0  0  0  0  0
   -2.4244    3.5559    0.5170 H   0  0  0  1  0  0  0  0  0  0  0  0
   -3.1789    3.1854   -0.1451 C   0  0  0  1  0  0  0  0  0  0  0  0
   -4.1223    3.6221    0.1084 H   0  0  0  1  0  0  0  0  0  0  0  0
  -10.2834    1.4845   -5.9861 N   0  0  0  1  0  0  0  0  0  0  0  0
  -11.4068    2.2328   -3.3486 C   0  0  0  1  0  0  0  0  0  0  0  0
  -12.2312    1.4766   -2.3093 C   0  0  0  1  0  0  0  0  0  0  0  0
  -11.9122    3.0856   -4.0758 O   0  0  0  1  0  0  0  0  0  0  0  0
  -10.7035    1.2772   -7.3639 C   0  0  0  1  0  0  0  0  0  0  0  0
    1.7161    1.8520    1.5600 O   0  0  0  1  0  0  0  0  0  0  0  0
   -9.0710    3.3268   -6.4329 O   0  0  0  1  0  0  0  0  0  0  0  0
  -10.1198    1.8751   -3.3769 N   0  0  0  1  0  0  0  0  0  0  0  0
   -0.3908   -8.4927   -2.4090 O   0  5  0  1  0  0  0  0  0  0  0  0
   -4.4507    1.0608   -0.2228 N   0  0  0  1  0  0  0  0  0  0  0  0
   -1.1103   -8.4169   -0.2822 O   0  0  0  1  0  0  0  0  0  0  0  0
   -7.3620    2.2707   -2.3444 C   0  0  0  1  0  0  0  0  0  0  0  0
   -7.7085    2.1351   -3.8146 C   0  0  0  1  0  0  0  0  0  0  0  0
   -2.3127    0.7460    0.2969 C   0  0  0  1  0  0  0  0  0  0  0  0
   -5.9375    1.9061   -1.9731 C   0  0  0  1  0  0  0  0  0  0  0  0
   -2.9513   -0.5026    0.2795 C   0  0  0  1  0  0  0  0  0  0  0  0
    2.1137   -0.4691    2.2780 C   0  0  0  1  0  0  0  0  0  0  0  0
   -9.1267    2.6058   -4.1501 C   0  0  0  1  0  0  0  0  0  0  0  0
   -5.7348    1.7136   -0.4798 C   0  0  0  1  0  0  0  0  0  0  0  0
   -2.3049   -1.8377    0.5644 C   0  0  0  1  0  0  0  0  0  0  0  0
   -9.4696    2.4828   -5.6306 C   0  0  0  1  0  0  0  0  0  0  0  0
    1.4155    0.4970    1.2887 C   0  0  0  1  0  0  0  0  0  0  0  0
    3.5991   -0.1952    2.4402 C   0  0  0  1  0  0  0  0  0  0  0  0
   -0.9115    1.0364    0.5848 C   0  0  0  1  0  0  0  0  0  0  0  0
    4.3281   -1.2728    3.2245 C   0  0  0  1  0  0  0  0  0  0  0  0
   -0.0695    0.3179    1.2886 C   0  0  0  1  0  0  0  0  0  0  0  0
   -3.2675    1.7036   -0.0170 C   0  0  0  1  0  0  0  0  0  0  0  0
    5.7911   -1.3822    2.8728 C   0  0  0  1  0  0  0  0  0  0  0  0
   -4.2776   -0.2937   -0.0450 C   0  0  0  1  0  0  0  0  0  0  0  0
   -3.2386   -2.8814    1.0898 C   0  0  0  1  0  0  0  0  0  0  0  0
   -3.5937   -4.0119    0.4907 C   0  0  0  1  0  0  0  0  0  0  0  0
   -2.8261   -4.5443   -0.6897 C   0  0  0  1  0  0  0  0  0  0  0  0
    6.5967   -2.3540    3.7195 C   0  0  0  1  0  0  0  0  0  0  0  0
   -2.2286   -5.9229   -0.4402 C   0  0  0  1  0  0  0  0  0  0  0  0
   -1.5000   -6.4932   -1.6501 C   0  0  0  1  0  0  0  0  0  0  0  0
   -0.9982   -7.8669   -1.3654 C   0  0  0  1  0  0  0  0  0  0  0  0
  -10.6087    0.8706   -5.2950 H   0  0  0  1  0  0  0  0  0  0  0  0
  -12.0157    0.4305   -2.3748 H   0  0  0  1  0  0  0  0  0  0  0  0
  -13.2726    1.6382   -2.4941 H   0  0  0  1  0  0  0  0  0  0  0  0
  -11.9829    1.8311   -1.3308 H   0  0  0  1  0  0  0  0  0  0  0  0
  -10.6869    2.2107   -7.8867 H   0  0  0  1  0  0  0  0  0  0  0  0
  -11.6965    0.8787   -7.3776 H   0  0  0  1  0  0  0  0  0  0  0  0
  -10.0362    0.5899   -7.8404 H   0  0  0  1  0  0  0  0  0  0  0  0
    2.4457    1.9000    2.1822 H   0  0  0  1  0  0  0  0  0  0  0  0
   -9.8346    1.0936   -2.8590 H   0  0  0  1  0  0  0  0  0  0  0  0
   -8.0201    1.6342   -1.7907 H   0  0  0  1  0  0  0  0  0  0  0  0
   -7.5264    3.2889   -2.0596 H   0  0  0  1  0  0  0  0  0  0  0  0
   -7.6186    1.1053   -4.0908 H   0  0  0  1  0  0  0  0  0  0  0  0
   -7.0142    2.7190   -4.3821 H   0  0  0  1  0  0  0  0  0  0  0  0
   -5.2891    2.6898   -2.3052 H   0  0  0  1  0  0  0  0  0  0  0  0
   -5.6800    0.9945   -2.4707 H   0  0  0  1  0  0  0  0  0  0  0  0
    1.9903   -1.4696    1.9193 H   0  0  0  1  0  0  0  0  0  0  0  0
    1.6444   -0.3723    3.2348 H   0  0  0  1  0  0  0  0  0  0  0  0
   -9.1911    3.6416   -3.8894 H   0  0  0  1  0  0  0  0  0  0  0  0
   -5.7490    2.6677    0.0043 H   0  0  0  1  0  0  0  0  0  0  0  0
   -6.5244    1.1045   -0.0920 H   0  0  0  1  0  0  0  0  0  0  0  0
   -1.5319   -1.6864    1.2887 H   0  0  0  1  0  0  0  0  0  0  0  0
   -1.8755   -2.2016   -0.3455 H   0  0  0  1  0  0  0  0  0  0  0  0
    1.7691    0.2543    0.3084 H   0  0  0  1  0  0  0  0  0  0  0  0
    3.7183    0.7366    2.9525 H   0  0  0  1  0  0  0  0  0  0  0  0
    4.0397   -0.1268    1.4675 H   0  0  0  1  0  0  0  0  0  0  0  0
   -0.5355    1.9192    0.1836 H   0  0  0  1  0  0  0  0  0  0  0  0
    3.8598   -2.2138    3.0240 H   0  0  0  1  0  0  0  0  0  0  0  0
    4.2458   -1.0479    4.2673 H   0  0  0  1  0  0  0  0  0  0  0  0
   -0.4638   -0.4322    1.8914 H   0  0  0  1  0  0  0  0  0  0  0  0
    6.2289   -0.4116    2.9787 H   0  0  0  1  0  0  0  0  0  0  0  0
    5.8622   -1.6967    1.8526 H   0  0  0  1  0  0  0  0  0  0  0  0
   -3.6548   -2.7023    2.0259 H   0  0  0  1  0  0  0  0  0  0  0  0
   -4.4175   -4.5394    0.8436 H   0  0  0  1  0  0  0  0  0  0  0  0
   -2.0312   -3.8641   -0.9140 H   0  0  0  1  0  0  0  0  0  0  0  0
   -3.4894   -4.6071   -1.5270 H   0  0  0  1  0  0  0  0  0  0  0  0
    7.2767   -1.8085    4.3400 H   0  0  0  1  0  0  0  0  0  0  0  0
    7.1472   -3.0122    3.0802 H   0  0  0  1  0  0  0  0  0  0  0  0
    5.9333   -2.9256    4.3345 H   0  0  0  1  0  0  0  0  0  0  0  0
   -3.0196   -6.5924   -0.1740 H   0  0  0  1  0  0  0  0  0  0  0  0
   -1.5343   -5.8500    0.3706 H   0  0  0  1  0  0  0  0  0  0  0  0
   -0.6717   -5.8601   -1.8913 H   0  0  0  1  0  0  0  0  0  0  0  0
   -2.1743   -6.5309   -2.4800 H   0  0  0  1  0  0  0  0  0  0  0  0
  1 34  1  0  0  0  0
  2  4  1  0  0  0  0
  3  4  1  0  0  0  0
  4  5  1  0  0  0  0
  4 32  1  0  0  0  0
  6 10  1  0  0  0  0
  6 26  1  0  0  0  0
  6 42  1  0  0  0  0
  7  8  1  0  0  0  0
  7  9  2  0  0  0  0
  7 13  1  0  0  0  0
  8 43  1  0  0  0  0
  8 44  1  0  0  0  0
  8 45  1  0  0  0  0
 10 46  1  0  0  0  0
 10 47  1  0  0  0  0
 10 48  1  0  0  0  0
 11 27  1  0  0  0  0
 11 49  1  0  0  0  0
 12 26  2  0  0  0  0
 13 23  1  0  0  0  0
 13 50  1  0  0  0  0
 14 41  1  0  0  0  0
 15 24  1  0  0  0  0
 15 32  4  0  0  0  0
 15 34  4  0  0  0  0
 16 41  2  0  0  0  0
 17 18  1  0  0  0  0
 17 20  1  0  0  0  0
 17 51  1  0  0  0  0
 17 52  1  0  0  0  0
 18 23  1  0  0  0  0
 18 53  1  0  0  0  0
 18 54  1  0  0  0  0
 19 21  4  0  0  0  0
 19 29  1  0  0  0  0
 19 32  4  0  0  0  0
 20 24  1  0  0  0  0
 20 55  1  0  0  0  0
 20 56  1  0  0  0  0
 21 25  1  0  0  0  0
 21 34  4  0  0  0  0
 22 27  1  0  0  0  0
 22 28  1  0  0  0  0
 22 57  1  0  0  0  0
 22 58  1  0  0  0  0
 23 26  1  0  0  0  0
 23 59  1  0  0  0  0
 24 60  1  0  0  0  0
 24 61  1  0  0  0  0
 25 35  1  0  0  0  0
 25 62  1  0  0  0  0
 25 63  1  0  0  0  0
 27 31  1  0  0  0  0
 27 64  1  0  0  0  0
 28 30  1  0  0  0  0
 28 65  1  0  0  0  0
 28 66  1  0  0  0  0
 29 31  2  0  0  0  0
 29 67  1  0  0  0  0
 30 33  1  0  0  0  0
 30 68  1  0  0  0  0
 30 69  1  0  0  0  0
 31 70  1  0  0  0  0
 33 38  1  0  0  0  0
 33 71  1  0  0  0  0
 33 72  1  0  0  0  0
 35 36  2  0  0  0  0
 35 73  1  0  0  0  0
 36 37  1  0  0  0  0
 36 74  1  0  0  0  0
 37 39  1  0  0  0  0
 37 75  1  0  0  0  0
 37 76  1  0  0  0  0
 38 77  1  0  0  0  0
 38 78  1  0  0  0  0
 38 79  1  0  0  0  0
 39 40  1  0  0  0  0
 39 80  1  0  0  0  0
 39 81  1  0  0  0  0
 40 41  1  0  0  0  0
 40 82  1  0  0  0  0
 40 83  1  0  0  0  0
M  END
> <ConfClashScore>
0 

> <ConfOneFourInteractionScore>
-0.983638 

> <ConfScore>
-0.0675277 

> <ConfScorePBest>
0.00626739 

> <ConfTolerance>
1.62491 

$$$$
9548876
  PyMOL2.2          3D                             0

 83 83  0  0  0  0  0  0  0  0999 V2000
   -5.0162   -1.0316   -0.0785 H   0  0  0  1  0  0  0  0  0  0  0  0
   -3.8776    3.5683   -0.8380 H   0  0  0  1  0  0  0  0  0  0  0  0
   -2.1840    3.4640   -0.4219 H   0  0  0  1  0  0  0  0  0  0  0  0
   -3.1749    3.1901   -0.1253 C   0  0  0  1  0  0  0  0  0  0  0  0
   -3.3867    3.6042    0.8383 H   0  0  0  1  0  0  0  0  0  0  0  0
   -6.2589    7.1079    2.8164 N   0  0  0  1  0  0  0  0  0  0  0  0
   -5.8454    5.7884    5.6508 C   0  0  0  1  0  0  0  0  0  0  0  0
   -6.6456    6.0278    6.9163 C   0  0  0  1  0  0  0  0  0  0  0  0
   -4.7144    6.2281    5.5241 O   0  0  0  1  0  0  0  0  0  0  0  0
   -5.8871    8.4191    2.3059 C   0  0  0  1  0  0  0  0  0  0  0  0
    2.0993    0.8451   -0.6804 O   0  0  0  1  0  0  0  0  0  0  0  0
   -4.3285    6.1811    2.1561 O   0  0  0  1  0  0  0  0  0  0  0  0
   -6.4614    5.0705    4.6982 N   0  0  0  1  0  0  0  0  0  0  0  0
   -7.1644   -3.0101    4.8245 O   0  5  0  1  0  0  0  0  0  0  0  0
   -4.4656    1.0533   -0.2286 N   0  0  0  1  0  0  0  0  0  0  0  0
   -5.6051   -2.1322    6.2289 O   0  0  0  1  0  0  0  0  0  0  0  0
   -5.7914    3.3049    1.3813 C   0  0  0  1  0  0  0  0  0  0  0  0
   -6.5911    3.8564    2.5356 C   0  0  0  1  0  0  0  0  0  0  0  0
   -2.3172    0.7595    0.2594 C   0  0  0  1  0  0  0  0  0  0  0  0
   -6.4971    2.1795    0.6425 C   0  0  0  1  0  0  0  0  0  0  0  0
   -2.9511   -0.4913    0.2867 C   0  0  0  1  0  0  0  0  0  0  0  0
    1.7430    3.2640   -0.5866 C   0  0  0  1  0  0  0  0  0  0  0  0
   -5.7850    4.7933    3.4399 C   0  0  0  1  0  0  0  0  0  0  0  0
   -5.7360    1.6899   -0.5777 C   0  0  0  1  0  0  0  0  0  0  0  0
   -2.2945   -1.8162    0.5946 C   0  0  0  1  0  0  0  0  0  0  0  0
   -5.4062    6.0839    2.7196 C   0  0  0  1  0  0  0  0  0  0  0  0
    1.3774    1.8878   -0.0519 C   0  0  0  1  0  0  0  0  0  0  0  0
    3.2028    3.6253   -0.3716 C   0  0  0  1  0  0  0  0  0  0  0  0
   -0.9047    1.0073    0.5219 C   0  0  0  1  0  0  0  0  0  0  0  0
    3.5868    4.9619   -0.9768 C   0  0  0  1  0  0  0  0  0  0  0  0
   -0.0756    1.6202   -0.2853 C   0  0  0  1  0  0  0  0  0  0  0  0
   -3.2813    1.7052   -0.0617 C   0  0  0  1  0  0  0  0  0  0  0  0
    5.0650    5.2835   -0.8380 C   0  0  0  1  0  0  0  0  0  0  0  0
   -4.2840   -0.2954   -0.0185 C   0  0  0  1  0  0  0  0  0  0  0  0
   -1.3634   -1.7920    1.7650 C   0  0  0  1  0  0  0  0  0  0  0  0
   -1.4252   -2.5439    2.8431 C   0  0  0  1  0  0  0  0  0  0  0  0
   -2.6211   -3.3565    3.2573 C   0  0  0  1  0  0  0  0  0  0  0  0
    5.4562    6.6069   -1.4751 C   0  0  0  1  0  0  0  0  0  0  0  0
   -3.4714   -2.6690    4.3131 C   0  0  0  1  0  0  0  0  0  0  0  0
   -4.9005   -3.1688    4.1779 C   0  0  0  1  0  0  0  0  0  0  0  0
   -5.8902   -2.7089    5.1923 C   0  0  0  1  0  0  0  0  0  0  0  0
   -7.1365    6.9758    3.2319 H   0  0  0  1  0  0  0  0  0  0  0  0
   -6.9974    7.0382    6.9306 H   0  0  0  1  0  0  0  0  0  0  0  0
   -6.0235    5.8549    7.7694 H   0  0  0  1  0  0  0  0  0  0  0  0
   -7.4807    5.3593    6.9418 H   0  0  0  1  0  0  0  0  0  0  0  0
   -5.3816    8.3077    1.3695 H   0  0  0  1  0  0  0  0  0  0  0  0
   -5.2384    8.9032    3.0058 H   0  0  0  1  0  0  0  0  0  0  0  0
   -6.7680    9.0105    2.1673 H   0  0  0  1  0  0  0  0  0  0  0  0
    2.3243    0.1746   -0.0312 H   0  0  0  1  0  0  0  0  0  0  0  0
   -7.3686    4.7325    4.8506 H   0  0  0  1  0  0  0  0  0  0  0  0
   -4.8624    2.9323    1.7596 H   0  0  0  1  0  0  0  0  0  0  0  0
   -5.6026    4.0990    0.6894 H   0  0  0  1  0  0  0  0  0  0  0  0
   -6.9448    3.0368    3.1255 H   0  0  0  1  0  0  0  0  0  0  0  0
   -7.4249    4.3992    2.1420 H   0  0  0  1  0  0  0  0  0  0  0  0
   -7.4566    2.5313    0.3253 H   0  0  0  1  0  0  0  0  0  0  0  0
   -6.6228    1.3578    1.3163 H   0  0  0  1  0  0  0  0  0  0  0  0
    1.1365    3.9927   -0.0907 H   0  0  0  1  0  0  0  0  0  0  0  0
    1.5394    3.2849   -1.6369 H   0  0  0  1  0  0  0  0  0  0  0  0
   -4.8702    4.2878    3.6689 H   0  0  0  1  0  0  0  0  0  0  0  0
   -6.3437    0.9797   -1.0986 H   0  0  0  1  0  0  0  0  0  0  0  0
   -5.5369    2.5255   -1.2156 H   0  0  0  1  0  0  0  0  0  0  0  0
   -1.7390   -2.1217   -0.2675 H   0  0  0  1  0  0  0  0  0  0  0  0
   -3.0644   -2.5316    0.7954 H   0  0  0  1  0  0  0  0  0  0  0  0
    1.5611    1.8740    1.0021 H   0  0  0  1  0  0  0  0  0  0  0  0
    3.8097    2.8646   -0.8165 H   0  0  0  1  0  0  0  0  0  0  0  0
    3.3916    3.6628    0.6809 H   0  0  0  1  0  0  0  0  0  0  0  0
   -0.5228    0.6682    1.4279 H   0  0  0  1  0  0  0  0  0  0  0  0
    3.0251    5.7299   -0.4873 H   0  0  0  1  0  0  0  0  0  0  0  0
    3.3392    4.9466   -2.0177 H   0  0  0  1  0  0  0  0  0  0  0  0
   -0.4702    1.9576   -1.1865 H   0  0  0  1  0  0  0  0  0  0  0  0
    5.6275    4.5025   -1.3056 H   0  0  0  1  0  0  0  0  0  0  0  0
    5.3071    5.3236    0.2035 H   0  0  0  1  0  0  0  0  0  0  0  0
   -0.5824   -1.1065    1.7220 H   0  0  0  1  0  0  0  0  0  0  0  0
   -0.5845   -2.5788    3.4543 H   0  0  0  1  0  0  0  0  0  0  0  0
   -2.2783   -4.2905    3.6513 H   0  0  0  1  0  0  0  0  0  0  0  0
   -3.2277   -3.5342    2.3940 H   0  0  0  1  0  0  0  0  0  0  0  0
    4.8401    7.3885   -1.0820 H   0  0  0  1  0  0  0  0  0  0  0  0
    5.3216    6.5459   -2.5348 H   0  0  0  1  0  0  0  0  0  0  0  0
    6.4822    6.8180   -1.2569 H   0  0  0  1  0  0  0  0  0  0  0  0
   -3.4437   -1.6096    4.1656 H   0  0  0  1  0  0  0  0  0  0  0  0
   -3.0972   -2.9039    5.2876 H   0  0  0  1  0  0  0  0  0  0  0  0
   -4.8713   -4.2375    4.2206 H   0  0  0  1  0  0  0  0  0  0  0  0
   -5.2585   -2.8594    3.2181 H   0  0  0  1  0  0  0  0  0  0  0  0
  1 34  1  0  0  0  0
  2  4  1  0  0  0  0
  3  4  1  0  0  0  0
  4  5  1  0  0  0  0
  4 32  1  0  0  0  0
  6 10  1  0  0  0  0
  6 26  1  0  0  0  0
  6 42  1  0  0  0  0
  7  8  1  0  0  0  0
  7  9  2  0  0  0  0
  7 13  1  0  0  0  0
  8 43  1  0  0  0  0
  8 44  1  0  0  0  0
  8 45  1  0  0  0  0
 10 46  1  0  0  0  0
 10 47  1  0  0  0  0
 10 48  1  0  0  0  0
 11 27  1  0  0  0  0
 11 49  1  0  0  0  0
 12 26  2  0  0  0  0
 13 23  1  0  0  0  0
 13 50  1  0  0  0  0
 14 41  1  0  0  0  0
 15 24  1  0  0  0  0
 15 32  4  0  0  0  0
 15 34  4  0  0  0  0
 16 41  2  0  0  0  0
 17 18  1  0  0  0  0
 17 20  1  0  0  0  0
 17 51  1  0  0  0  0
 17 52  1  0  0  0  0
 18 23  1  0  0  0  0
 18 53  1  0  0  0  0
 18 54  1  0  0  0  0
 19 21  4  0  0  0  0
 19 29  1  0  0  0  0
 19 32  4  0  0  0  0
 20 24  1  0  0  0  0
 20 55  1  0  0  0  0
 20 56  1  0  0  0  0
 21 25  1  0  0  0  0
 21 34  4  0  0  0  0
 22 27  1  0  0  0  0
 22 28  1  0  0  0  0
 22 57  1  0  0  0  0
 22 58  1  0  0  0  0
 23 26  1  0  0  0  0
 23 59  1  0  0  0  0
 24 60  1  0  0  0  0
 24 61  1  0  0  0  0
 25 35  1  0  0  0  0
 25 62  1  0  0  0  0
 25 63  1  0  0  0  0
 27 31  1  0  0  0  0
 27 64  1  0  0  0  0
 28 30  1  0  0  0  0
 28 65  1  0  0  0  0
 28 66  1  0  0  0  0
 29 31  2  0  0  0  0
 29 67  1  0  0  0  0
 30 33  1  0  0  0  0
 30 68  1  0  0  0  0
 30 69  1  0  0  0  0
 31 70  1  0  0  0  0
 33 38  1  0  0  0  0
 33 71  1  0  0  0  0
 33 72  1  0  0  0  0
 35 36  2  0  0  0  0
 35 73  1  0  0  0  0
 36 37  1  0  0  0  0
 36 74  1  0  0  0  0
 37 39  1  0  0  0  0
 37 75  1  0  0  0  0
 37 76  1  0  0  0  0
 38 77  1  0  0  0  0
 38 78  1  0  0  0  0
 38 79  1  0  0  0  0
 39 40  1  0  0  0  0
 39 80  1  0  0  0  0
 39 81  1  0  0  0  0
 40 41  1  0  0  0  0
 40 82  1  0  0  0  0
 40 83  1  0  0  0  0
M  END
> <ConfClashScore>
0 

> <ConfOneFourInteractionScore>
-0.985972 

> <ConfScore>
-0.0661476 

> <ConfScorePBest>
0.00623891 

> <ConfTolerance>
1.68398 

$$$$
9548876
  PyMOL2.2          3D                             0

 83 83  0  0  0  0  0  0  0  0999 V2000
   -5.0039   -1.0371   -0.1089 H   0  0  0  1  0  0  0  0  0  0  0  0
   -2.8877    3.4504   -1.1353 H   0  0  0  1  0  0  0  0  0  0  0  0
   -2.4378    3.5507    0.5499 H   0  0  0  1  0  0  0  0  0  0  0  0
   -3.1770    3.1952   -0.1372 C   0  0  0  1  0  0  0  0  0  0  0  0
   -4.1203    3.6477    0.0872 H   0  0  0  1  0  0  0  0  0  0  0  0
   -9.8256   -4.1734    0.4083 N   0  0  0  1  0  0  0  0  0  0  0  0
   -7.8643   -3.3916    2.7704 C   0  0  0  1  0  0  0  0  0  0  0  0
   -6.7033   -4.2566    3.1905 C   0  0  0  1  0  0  0  0  0  0  0  0
   -8.8154   -3.1895    3.5242 O   0  0  0  1  0  0  0  0  0  0  0  0
  -10.8663   -5.0998   -0.0122 C   0  0  0  1  0  0  0  0  0  0  0  0
    1.8470    0.9436    0.4391 O   0  0  0  1  0  0  0  0  0  0  0  0
  -11.1810   -2.3803    0.5940 O   0  0  0  1  0  0  0  0  0  0  0  0
   -7.7853   -2.8686    1.5374 N   0  0  0  1  0  0  0  0  0  0  0  0
   -5.7120   -4.9071   -3.7071 O   0  5  0  1  0  0  0  0  0  0  0  0
   -4.4728    1.0561   -0.2050 N   0  0  0  1  0  0  0  0  0  0  0  0
   -4.7130   -3.1352   -4.7583 O   0  0  0  1  0  0  0  0  0  0  0  0
   -7.3417   -0.1540    0.1715 C   0  0  0  1  0  0  0  0  0  0  0  0
   -8.3587   -1.2005   -0.2110 C   0  0  0  1  0  0  0  0  0  0  0  0
   -2.3237    0.7706    0.2850 C   0  0  0  1  0  0  0  0  0  0  0  0
   -6.8010    0.6832   -0.9762 C   0  0  0  1  0  0  0  0  0  0  0  0
   -2.9457   -0.4864    0.2786 C   0  0  0  1  0  0  0  0  0  0  0  0
    1.6828    3.1704   -0.5014 C   0  0  0  1  0  0  0  0  0  0  0  0
   -8.8415   -2.0401    0.9753 C   0  0  0  1  0  0  0  0  0  0  0  0
   -5.7478    1.6890   -0.5438 C   0  0  0  1  0  0  0  0  0  0  0  0
   -2.2777   -1.8123    0.5565 C   0  0  0  1  0  0  0  0  0  0  0  0
  -10.0661   -2.8753    0.6135 C   0  0  0  1  0  0  0  0  0  0  0  0
    1.2432    2.2229    0.6215 C   0  0  0  1  0  0  0  0  0  0  0  0
    3.1909    3.2504   -0.6659 C   0  0  0  1  0  0  0  0  0  0  0  0
   -0.9049    0.9642    0.5680 C   0  0  0  1  0  0  0  0  0  0  0  0
    3.5607    4.2291   -1.7638 C   0  0  0  1  0  0  0  0  0  0  0  0
   -0.2470    2.0966    0.6428 C   0  0  0  1  0  0  0  0  0  0  0  0
   -3.2954    1.7148   -0.0168 C   0  0  0  1  0  0  0  0  0  0  0  0
    5.0561    4.4609   -1.8849 C   0  0  0  1  0  0  0  0  0  0  0  0
   -4.2792   -0.2957   -0.0275 C   0  0  0  1  0  0  0  0  0  0  0  0
   -1.3332   -2.1424   -0.5553 C   0  0  0  1  0  0  0  0  0  0  0  0
   -1.3798   -3.1845   -1.3470 C   0  0  0  1  0  0  0  0  0  0  0  0
   -2.2044   -4.4188   -1.0974 C   0  0  0  1  0  0  0  0  0  0  0  0
    5.7677    3.1826   -2.2941 C   0  0  0  1  0  0  0  0  0  0  0  0
   -3.1349   -4.7586   -2.2544 C   0  0  0  1  0  0  0  0  0  0  0  0
   -4.1174   -3.6229   -2.5085 C   0  0  0  1  0  0  0  0  0  0  0  0
   -4.8651   -3.8453   -3.7780 C   0  0  0  1  0  0  0  0  0  0  0  0
   -8.9169   -4.5135    0.5456 H   0  0  0  1  0  0  0  0  0  0  0  0
   -7.0378   -4.9826    3.9017 H   0  0  0  1  0  0  0  0  0  0  0  0
   -5.9457   -3.6453    3.6346 H   0  0  0  1  0  0  0  0  0  0  0  0
   -6.3023   -4.7559    2.3332 H   0  0  0  1  0  0  0  0  0  0  0  0
  -10.5932   -6.0953    0.2693 H   0  0  0  1  0  0  0  0  0  0  0  0
  -10.9809   -5.0486   -1.0748 H   0  0  0  1  0  0  0  0  0  0  0  0
  -11.7898   -4.8365    0.4598 H   0  0  0  1  0  0  0  0  0  0  0  0
    2.6230    0.8726    0.9999 H   0  0  0  1  0  0  0  0  0  0  0  0
   -6.9887   -3.0507    0.9965 H   0  0  0  1  0  0  0  0  0  0  0  0
   -6.5153   -0.6513    0.6346 H   0  0  0  1  0  0  0  0  0  0  0  0
   -7.7998    0.5089    0.8756 H   0  0  0  1  0  0  0  0  0  0  0  0
   -7.9167   -1.8554   -0.9325 H   0  0  0  1  0  0  0  0  0  0  0  0
   -9.2042   -0.7092   -0.6453 H   0  0  0  1  0  0  0  0  0  0  0  0
   -7.6157    1.2151   -1.4213 H   0  0  0  1  0  0  0  0  0  0  0  0
   -6.3657    0.0260   -1.6997 H   0  0  0  1  0  0  0  0  0  0  0  0
    1.3129    4.1503   -0.2827 H   0  0  0  1  0  0  0  0  0  0  0  0
    1.2590    2.8257   -1.4214 H   0  0  0  1  0  0  0  0  0  0  0  0
   -9.1507   -1.3515    1.7337 H   0  0  0  1  0  0  0  0  0  0  0  0
   -5.5853    2.3806   -1.3440 H   0  0  0  1  0  0  0  0  0  0  0  0
   -6.1084    2.2152    0.3153 H   0  0  0  1  0  0  0  0  0  0  0  0
   -3.0222   -2.5773    0.6299 H   0  0  0  1  0  0  0  0  0  0  0  0
   -1.7360   -1.7516    1.4773 H   0  0  0  1  0  0  0  0  0  0  0  0
    1.5597    2.6404    1.5546 H   0  0  0  1  0  0  0  0  0  0  0  0
    3.5683    2.2814   -0.9180 H   0  0  0  1  0  0  0  0  0  0  0  0
    3.6276    3.5752    0.2553 H   0  0  0  1  0  0  0  0  0  0  0  0
   -0.3486    0.1005    0.7298 H   0  0  0  1  0  0  0  0  0  0  0  0
    3.0879    5.1663   -1.5563 H   0  0  0  1  0  0  0  0  0  0  0  0
    3.2003    3.8458   -2.6955 H   0  0  0  1  0  0  0  0  0  0  0  0
   -0.8031    2.9718    0.7228 H   0  0  0  1  0  0  0  0  0  0  0  0
    5.4380    4.7881   -0.9404 H   0  0  0  1  0  0  0  0  0  0  0  0
    5.2357    5.2142   -2.6232 H   0  0  0  1  0  0  0  0  0  0  0  0
   -0.5551   -1.4716   -0.7172 H   0  0  0  1  0  0  0  0  0  0  0  0
   -0.8040   -3.1573   -2.2127 H   0  0  0  1  0  0  0  0  0  0  0  0
   -2.7958   -4.2616   -0.2197 H   0  0  0  1  0  0  0  0  0  0  0  0
   -1.5425   -5.2444   -0.9390 H   0  0  0  1  0  0  0  0  0  0  0  0
    6.2947    3.3451   -3.2111 H   0  0  0  1  0  0  0  0  0  0  0  0
    5.0485    2.4021   -2.4299 H   0  0  0  1  0  0  0  0  0  0  0  0
    6.4611    2.9003   -1.5297 H   0  0  0  1  0  0  0  0  0  0  0  0
   -3.6805   -5.6478   -2.0163 H   0  0  0  1  0  0  0  0  0  0  0  0
   -2.5523   -4.9225   -3.1367 H   0  0  0  1  0  0  0  0  0  0  0  0
   -3.5783   -2.7011   -2.5758 H   0  0  0  1  0  0  0  0  0  0  0  0
   -4.8123   -3.5719   -1.6964 H   0  0  0  1  0  0  0  0  0  0  0  0
  1 34  1  0  0  0  0
  2  4  1  0  0  0  0
  3  4  1  0  0  0  0
  4  5  1  0  0  0  0
  4 32  1  0  0  0  0
  6 10  1  0  0  0  0
  6 26  1  0  0  0  0
  6 42  1  0  0  0  0
  7  8  1  0  0  0  0
  7  9  2  0  0  0  0
  7 13  1  0  0  0  0
  8 43  1  0  0  0  0
  8 44  1  0  0  0  0
  8 45  1  0  0  0  0
 10 46  1  0  0  0  0
 10 47  1  0  0  0  0
 10 48  1  0  0  0  0
 11 27  1  0  0  0  0
 11 49  1  0  0  0  0
 12 26  2  0  0  0  0
 13 23  1  0  0  0  0
 13 50  1  0  0  0  0
 14 41  1  0  0  0  0
 15 24  1  0  0  0  0
 15 32  4  0  0  0  0
 15 34  4  0  0  0  0
 16 41  2  0  0  0  0
 17 18  1  0  0  0  0
 17 20  1  0  0  0  0
 17 51  1  0  0  0  0
 17 52  1  0  0  0  0
 18 23  1  0  0  0  0
 18 53  1  0  0  0  0
 18 54  1  0  0  0  0
 19 21  4  0  0  0  0
 19 29  1  0  0  0  0
 19 32  4  0  0  0  0
 20 24  1  0  0  0  0
 20 55  1  0  0  0  0
 20 56  1  0  0  0  0
 21 25  1  0  0  0  0
 21 34  4  0  0  0  0
 22 27  1  0  0  0  0
 22 28  1  0  0  0  0
 22 57  1  0  0  0  0
 22 58  1  0  0  0  0
 23 26  1  0  0  0  0
 23 59  1  0  0  0  0
 24 60  1  0  0  0  0
 24 61  1  0  0  0  0
 25 35  1  0  0  0  0
 25 62  1  0  0  0  0
 25 63  1  0  0  0  0
 27 31  1  0  0  0  0
 27 64  1  0  0  0  0
 28 30  1  0  0  0  0
 28 65  1  0  0  0  0
 28 66  1  0  0  0  0
 29 31  2  0  0  0  0
 29 67  1  0  0  0  0
 30 33  1  0  0  0  0
 30 68  1  0  0  0  0
 30 69  1  0  0  0  0
 31 70  1  0  0  0  0
 33 38  1  0  0  0  0
 33 71  1  0  0  0  0
 33 72  1  0  0  0  0
 35 36  2  0  0  0  0
 35 73  1  0  0  0  0
 36 37  1  0  0  0  0
 36 74  1  0  0  0  0
 37 39  1  0  0  0  0
 37 75  1  0  0  0  0
 37 76  1  0  0  0  0
 38 77  1  0  0  0  0
 38 78  1  0  0  0  0
 38 79  1  0  0  0  0
 39 40  1  0  0  0  0
 39 80  1  0  0  0  0
 39 81  1  0  0  0  0
 40 41  1  0  0  0  0
 40 82  1  0  0  0  0
 40 83  1  0  0  0  0
M  END
> <ConfClashScore>
0 

> <ConfOneFourInteractionScore>
-0.984625 

> <ConfScore>
-0.0660812 

> <ConfScorePBest>
0.00621043 

> <ConfTolerance>
2.18556 

$$$$
9548876
  PyMOL2.2          3D                             0

 83 83  0  0  0  0  0  0  0  0999 V2000
   -4.9857   -1.0499   -0.1090 H   0  0  0  1  0  0  0  0  0  0  0  0
   -2.1644    3.4880   -0.0335 H   0  0  0  1  0  0  0  0  0  0  0  0
   -3.7700    3.6582    0.6339 H   0  0  0  1  0  0  0  0  0  0  0  0
   -3.1884    3.1952   -0.1356 C   0  0  0  1  0  0  0  0  0  0  0  0
   -3.5534    3.5030   -1.0932 H   0  0  0  1  0  0  0  0  0  0  0  0
   -9.6961    4.4404   -2.5055 N   0  0  0  1  0  0  0  0  0  0  0  0
   -9.5610    2.9500   -6.5976 C   0  0  0  1  0  0  0  0  0  0  0  0
   -9.4271    3.2503   -8.0779 C   0  0  0  1  0  0  0  0  0  0  0  0
  -10.4553    2.2196   -6.1727 O   0  0  0  1  0  0  0  0  0  0  0  0
   -9.9674    5.5329   -1.5831 C   0  0  0  1  0  0  0  0  0  0  0  0
    1.8213    0.5421    1.0387 O   0  0  0  1  0  0  0  0  0  0  0  0
   -8.3916    5.6456   -3.8956 O   0  0  0  1  0  0  0  0  0  0  0  0
   -8.6554    3.5248   -5.8057 N   0  0  0  1  0  0  0  0  0  0  0  0
   -6.7225   -8.0258    2.0636 O   0  5  0  1  0  0  0  0  0  0  0  0
   -4.4693    1.0470   -0.2041 N   0  0  0  1  0  0  0  0  0  0  0  0
   -6.4906   -7.8039   -0.1884 O   0  0  0  1  0  0  0  0  0  0  0  0
   -7.1682    2.4893   -2.4798 C   0  0  0  1  0  0  0  0  0  0  0  0
   -7.3014    2.6308   -3.9883 C   0  0  0  1  0  0  0  0  0  0  0  0
   -2.3180    0.7763    0.2850 C   0  0  0  1  0  0  0  0  0  0  0  0
   -5.8628    1.8486   -2.0490 C   0  0  0  1  0  0  0  0  0  0  0  0
   -2.9313   -0.4850    0.2781 C   0  0  0  1  0  0  0  0  0  0  0  0
    1.6977    2.4923    2.4105 C   0  0  0  1  0  0  0  0  0  0  0  0
   -8.6326    3.3083   -4.3571 C   0  0  0  1  0  0  0  0  0  0  0  0
   -5.7222    1.7233   -0.5415 C   0  0  0  1  0  0  0  0  0  0  0  0
   -2.3065   -1.8386    0.5469 C   0  0  0  1  0  0  0  0  0  0  0  0
   -8.9151    4.5901   -3.5791 C   0  0  0  1  0  0  0  0  0  0  0  0
    1.0609    1.1539    2.0894 C   0  0  0  1  0  0  0  0  0  0  0  0
    0.9325    3.2885    3.4539 C   0  0  0  1  0  0  0  0  0  0  0  0
   -0.9022    0.9795    0.5672 C   0  0  0  1  0  0  0  0  0  0  0  0
    1.6520    4.5504    3.7880 C   0  0  0  1  0  0  0  0  0  0  0  0
   -0.3903    1.2575    1.7425 C   0  0  0  1  0  0  0  0  0  0  0  0
   -3.2965    1.7139   -0.0160 C   0  0  0  1  0  0  0  0  0  0  0  0
    0.9946    5.4932    4.7594 C   0  0  0  1  0  0  0  0  0  0  0  0
   -4.2661   -0.3035   -0.0274 C   0  0  0  1  0  0  0  0  0  0  0  0
   -2.3027   -2.7648   -0.6248 C   0  0  0  1  0  0  0  0  0  0  0  0
   -3.0406   -3.8526   -0.6867 C   0  0  0  1  0  0  0  0  0  0  0  0
   -3.7815   -4.5106    0.4447 C   0  0  0  1  0  0  0  0  0  0  0  0
    1.7444    6.7889    5.0229 C   0  0  0  1  0  0  0  0  0  0  0  0
   -4.6392   -5.7035    0.0553 C   0  0  0  1  0  0  0  0  0  0  0  0
   -5.3264   -6.2943    1.2756 C   0  0  0  1  0  0  0  0  0  0  0  0
   -6.2254   -7.4353    0.9439 C   0  0  0  1  0  0  0  0  0  0  0  0
  -10.1003    3.5644   -2.3331 H   0  0  0  1  0  0  0  0  0  0  0  0
  -10.4002    3.3309   -8.5154 H   0  0  0  1  0  0  0  0  0  0  0  0
   -8.8863    2.4596   -8.5545 H   0  0  0  1  0  0  0  0  0  0  0  0
   -8.9003    4.1725   -8.2082 H   0  0  0  1  0  0  0  0  0  0  0  0
   -9.5569    5.2999   -0.6229 H   0  0  0  1  0  0  0  0  0  0  0  0
  -11.0248    5.6705   -1.4948 H   0  0  0  1  0  0  0  0  0  0  0  0
   -9.5200    6.4315   -1.9536 H   0  0  0  1  0  0  0  0  0  0  0  0
    1.8242    1.1162    0.2693 H   0  0  0  1  0  0  0  0  0  0  0  0
   -7.9815    4.1126   -6.2067 H   0  0  0  1  0  0  0  0  0  0  0  0
   -7.9764    1.8855   -2.1231 H   0  0  0  1  0  0  0  0  0  0  0  0
   -7.2292    3.4632   -2.0410 H   0  0  0  1  0  0  0  0  0  0  0  0
   -7.2659    1.6598   -4.4363 H   0  0  0  1  0  0  0  0  0  0  0  0
   -6.4915    3.2244   -4.3579 H   0  0  0  1  0  0  0  0  0  0  0  0
   -5.0544    2.4455   -2.4167 H   0  0  0  1  0  0  0  0  0  0  0  0
   -5.8077    0.8697   -2.4774 H   0  0  0  1  0  0  0  0  0  0  0  0
    1.7454    3.0698    1.5110 H   0  0  0  1  0  0  0  0  0  0  0  0
    2.6881    2.3179    2.7760 H   0  0  0  1  0  0  0  0  0  0  0  0
   -9.4123    2.6159   -4.1168 H   0  0  0  1  0  0  0  0  0  0  0  0
   -5.7252    2.6998   -0.1042 H   0  0  0  1  0  0  0  0  0  0  0  0
   -6.5441    1.1568   -0.1561 H   0  0  0  1  0  0  0  0  0  0  0  0
   -2.8517   -2.3062    1.3401 H   0  0  0  1  0  0  0  0  0  0  0  0
   -1.2931   -1.6836    0.8531 H   0  0  0  1  0  0  0  0  0  0  0  0
    1.1395    0.5432    2.9646 H   0  0  0  1  0  0  0  0  0  0  0  0
    0.8299    2.6978    4.3402 H   0  0  0  1  0  0  0  0  0  0  0  0
   -0.0372    3.5285    3.0704 H   0  0  0  1  0  0  0  0  0  0  0  0
   -0.2415    0.8969   -0.2317 H   0  0  0  1  0  0  0  0  0  0  0  0
    1.8001    5.0857    2.8735 H   0  0  0  1  0  0  0  0  0  0  0  0
    2.6012    4.2777    4.1999 H   0  0  0  1  0  0  0  0  0  0  0  0
   -1.0421    1.5736    2.4887 H   0  0  0  1  0  0  0  0  0  0  0  0
    0.8839    4.9810    5.6923 H   0  0  0  1  0  0  0  0  0  0  0  0
    0.0289    5.7441    4.3729 H   0  0  0  1  0  0  0  0  0  0  0  0
   -1.6865   -2.5389   -1.4316 H   0  0  0  1  0  0  0  0  0  0  0  0
   -3.1200   -4.3065   -1.6190 H   0  0  0  1  0  0  0  0  0  0  0  0
   -4.4194   -3.7774    0.8922 H   0  0  0  1  0  0  0  0  0  0  0  0
   -3.0606   -4.8427    1.1624 H   0  0  0  1  0  0  0  0  0  0  0  0
    2.7087    6.7437    4.5615 H   0  0  0  1  0  0  0  0  0  0  0  0
    1.8601    6.9255    6.0779 H   0  0  0  1  0  0  0  0  0  0  0  0
    1.1922    7.6096    4.6150 H   0  0  0  1  0  0  0  0  0  0  0  0
   -4.0183   -6.4504   -0.3937 H   0  0  0  1  0  0  0  0  0  0  0  0
   -5.3820   -5.3871   -0.6469 H   0  0  0  1  0  0  0  0  0  0  0  0
   -5.9077   -5.5275    1.7436 H   0  0  0  1  0  0  0  0  0  0  0  0
   -4.5756   -6.6387    1.9558 H   0  0  0  1  0  0  0  0  0  0  0  0
  1 34  1  0  0  0  0
  2  4  1  0  0  0  0
  3  4  1  0  0  0  0
  4  5  1  0  0  0  0
  4 32  1  0  0  0  0
  6 10  1  0  0  0  0
  6 26  1  0  0  0  0
  6 42  1  0  0  0  0
  7  8  1  0  0  0  0
  7  9  2  0  0  0  0
  7 13  1  0  0  0  0
  8 43  1  0  0  0  0
  8 44  1  0  0  0  0
  8 45  1  0  0  0  0
 10 46  1  0  0  0  0
 10 47  1  0  0  0  0
 10 48  1  0  0  0  0
 11 27  1  0  0  0  0
 11 49  1  0  0  0  0
 12 26  2  0  0  0  0
 13 23  1  0  0  0  0
 13 50  1  0  0  0  0
 14 41  1  0  0  0  0
 15 24  1  0  0  0  0
 15 32  4  0  0  0  0
 15 34  4  0  0  0  0
 16 41  2  0  0  0  0
 17 18  1  0  0  0  0
 17 20  1  0  0  0  0
 17 51  1  0  0  0  0
 17 52  1  0  0  0  0
 18 23  1  0  0  0  0
 18 53  1  0  0  0  0
 18 54  1  0  0  0  0
 19 21  4  0  0  0  0
 19 29  1  0  0  0  0
 19 32  4  0  0  0  0
 20 24  1  0  0  0  0
 20 55  1  0  0  0  0
 20 56  1  0  0  0  0
 21 25  1  0  0  0  0
 21 34  4  0  0  0  0
 22 27  1  0  0  0  0
 22 28  1  0  0  0  0
 22 57  1  0  0  0  0
 22 58  1  0  0  0  0
 23 26  1  0  0  0  0
 23 59  1  0  0  0  0
 24 60  1  0  0  0  0
 24 61  1  0  0  0  0
 25 35  1  0  0  0  0
 25 62  1  0  0  0  0
 25 63  1  0  0  0  0
 27 31  1  0  0  0  0
 27 64  1  0  0  0  0
 28 30  1  0  0  0  0
 28 65  1  0  0  0  0
 28 66  1  0  0  0  0
 29 31  2  0  0  0  0
 29 67  1  0  0  0  0
 30 33  1  0  0  0  0
 30 68  1  0  0  0  0
 30 69  1  0  0  0  0
 31 70  1  0  0  0  0
 33 38  1  0  0  0  0
 33 71  1  0  0  0  0
 33 72  1  0  0  0  0
 35 36  2  0  0  0  0
 35 73  1  0  0  0  0
 36 37  1  0  0  0  0
 36 74  1  0  0  0  0
 37 39  1  0  0  0  0
 37 75  1  0  0  0  0
 37 76  1  0  0  0  0
 38 77  1  0  0  0  0
 38 78  1  0  0  0  0
 38 79  1  0  0  0  0
 39 40  1  0  0  0  0
 39 80  1  0  0  0  0
 39 81  1  0  0  0  0
 40 41  1  0  0  0  0
 40 82  1  0  0  0  0
 40 83  1  0  0  0  0
M  END
> <ConfClashScore>
0 

> <ConfOneFourInteractionScore>
-0.992809 

> <ConfScore>
-0.0605795 

> <ConfScorePBest>
0.00618195 

> <ConfTolerance>
1.63479 

$$$$
9548876
  PyMOL2.2          3D                             0

 83 83  0  0  0  0  0  0  0  0999 V2000
   -5.0085   -1.0375   -0.0955 H   0  0  0  1  0  0  0  0  0  0  0  0
   -3.7904    3.5337   -0.9455 H   0  0  0  1  0  0  0  0  0  0  0  0
   -2.1502    3.4472   -0.3497 H   0  0  0  1  0  0  0  0  0  0  0  0
   -3.1684    3.1889   -0.1460 C   0  0  0  1  0  0  0  0  0  0  0  0
   -3.4772    3.6487    0.7695 H   0  0  0  1  0  0  0  0  0  0  0  0
  -11.2447    1.6847    3.3451 N   0  0  0  1  0  0  0  0  0  0  0  0
  -10.9406    4.1637   -0.5993 C   0  0  0  1  0  0  0  0  0  0  0  0
  -11.0192    5.5434   -1.2234 C   0  0  0  1  0  0  0  0  0  0  0  0
  -11.3426    3.1725   -1.2071 O   0  0  0  1  0  0  0  0  0  0  0  0
  -12.0076    1.6350    4.5834 C   0  0  0  1  0  0  0  0  0  0  0  0
    1.5098    0.9250    1.8404 O   0  0  0  1  0  0  0  0  0  0  0  0
  -11.5847    3.8848    3.0895 O   0  0  0  1  0  0  0  0  0  0  0  0
  -10.4201    4.0575    0.6335 N   0  0  0  1  0  0  0  0  0  0  0  0
   -8.9846   -3.2491    1.3629 O   0  5  0  1  0  0  0  0  0  0  0  0
   -4.4718    1.0539   -0.1982 N   0  0  0  1  0  0  0  0  0  0  0  0
   -7.4601   -1.8082    2.2758 O   0  0  0  1  0  0  0  0  0  0  0  0
   -8.0712    2.2525    0.3376 C   0  0  0  1  0  0  0  0  0  0  0  0
   -8.9162    2.3780    1.5811 C   0  0  0  1  0  0  0  0  0  0  0  0
   -2.3181    0.7616    0.2669 C   0  0  0  1  0  0  0  0  0  0  0  0
   -6.6534    1.8327    0.6898 C   0  0  0  1  0  0  0  0  0  0  0  0
   -2.9442   -0.4934    0.2679 C   0  0  0  1  0  0  0  0  0  0  0  0
    2.1381    2.7556    0.3777 C   0  0  0  1  0  0  0  0  0  0  0  0
  -10.3704    2.7917    1.3499 C   0  0  0  1  0  0  0  0  0  0  0  0
   -5.7486    1.6909   -0.5223 C   0  0  0  1  0  0  0  0  0  0  0  0
   -2.2772   -1.8213    0.5384 C   0  0  0  1  0  0  0  0  0  0  0  0
  -11.1489    2.8286    2.6616 C   0  0  0  1  0  0  0  0  0  0  0  0
    1.1071    2.2035    1.3766 C   0  0  0  1  0  0  0  0  0  0  0  0
    3.5455    2.6412    0.9381 C   0  0  0  1  0  0  0  0  0  0  0  0
   -0.9484    1.0240    0.6117 C   0  0  0  1  0  0  0  0  0  0  0  0
    4.6080    3.2057    0.0147 C   0  0  0  1  0  0  0  0  0  0  0  0
   -0.2220    2.1128    0.6965 C   0  0  0  1  0  0  0  0  0  0  0  0
   -3.2902    1.7089   -0.0239 C   0  0  0  1  0  0  0  0  0  0  0  0
    5.9634    3.1398    0.5775 C   0  0  0  1  0  0  0  0  0  0  0  0
   -4.2805   -0.2984   -0.0226 C   0  0  0  1  0  0  0  0  0  0  0  0
   -2.8812   -2.9759   -0.1823 C   0  0  0  1  0  0  0  0  0  0  0  0
   -3.6084   -3.9948    0.2232 C   0  0  0  1  0  0  0  0  0  0  0  0
   -4.0986   -4.1481    1.6418 C   0  0  0  1  0  0  0  0  0  0  0  0
    7.1005    3.7295   -0.1668 C   0  0  0  1  0  0  0  0  0  0  0  0
   -5.2935   -3.2623    1.8934 C   0  0  0  1  0  0  0  0  0  0  0  0
   -6.6199   -3.7883    1.3696 C   0  0  0  1  0  0  0  0  0  0  0  0
   -7.7303   -2.8556    1.7117 C   0  0  0  1  0  0  0  0  0  0  0  0
  -10.8003    0.8773    3.0119 H   0  0  0  1  0  0  0  0  0  0  0  0
  -11.9496    5.6487   -1.7413 H   0  0  0  1  0  0  0  0  0  0  0  0
  -10.2111    5.6691   -1.9134 H   0  0  0  1  0  0  0  0  0  0  0  0
  -10.9525    6.2861   -0.4560 H   0  0  0  1  0  0  0  0  0  0  0  0
  -12.6696    0.7946    4.5617 H   0  0  0  1  0  0  0  0  0  0  0  0
  -12.5773    2.5348    4.6874 H   0  0  0  1  0  0  0  0  0  0  0  0
  -11.3370    1.5392    5.4116 H   0  0  0  1  0  0  0  0  0  0  0  0
    1.9743    1.0187    2.6753 H   0  0  0  1  0  0  0  0  0  0  0  0
  -10.0612    4.8602    1.0662 H   0  0  0  1  0  0  0  0  0  0  0  0
   -8.0430    3.1971   -0.1642 H   0  0  0  1  0  0  0  0  0  0  0  0
   -8.5044    1.5177   -0.3083 H   0  0  0  1  0  0  0  0  0  0  0  0
   -8.4621    3.1102    2.2156 H   0  0  0  1  0  0  0  0  0  0  0  0
   -8.9181    1.4290    2.0754 H   0  0  0  1  0  0  0  0  0  0  0  0
   -6.6942    0.8902    1.1948 H   0  0  0  1  0  0  0  0  0  0  0  0
   -6.2335    2.5696    1.3422 H   0  0  0  1  0  0  0  0  0  0  0  0
    1.9209    3.7850    0.1824 H   0  0  0  1  0  0  0  0  0  0  0  0
    2.0769    2.1984   -0.5337 H   0  0  0  1  0  0  0  0  0  0  0  0
  -10.8201    2.0414    0.7337 H   0  0  0  1  0  0  0  0  0  0  0  0
   -6.2509    1.0976   -1.2575 H   0  0  0  1  0  0  0  0  0  0  0  0
   -5.5545    2.6647   -0.9210 H   0  0  0  1  0  0  0  0  0  0  0  0
   -2.3354   -2.0162    1.5889 H   0  0  0  1  0  0  0  0  0  0  0  0
   -1.2509   -1.7450    0.2456 H   0  0  0  1  0  0  0  0  0  0  0  0
    1.0283    2.8859    2.1969 H   0  0  0  1  0  0  0  0  0  0  0  0
    3.7595    1.6069    1.1091 H   0  0  0  1  0  0  0  0  0  0  0  0
    3.5855    3.1724    1.8660 H   0  0  0  1  0  0  0  0  0  0  0  0
   -0.4162    0.1616    0.8453 H   0  0  0  1  0  0  0  0  0  0  0  0
    4.3734    4.2301   -0.1861 H   0  0  0  1  0  0  0  0  0  0  0  0
    4.5929    2.6500   -0.8996 H   0  0  0  1  0  0  0  0  0  0  0  0
   -0.5982    2.9777    0.2581 H   0  0  0  1  0  0  0  0  0  0  0  0
    6.1899    2.1036    0.7185 H   0  0  0  1  0  0  0  0  0  0  0  0
    5.9280    3.6302    1.5278 H   0  0  0  1  0  0  0  0  0  0  0  0
   -2.6913   -2.9773   -1.2048 H   0  0  0  1  0  0  0  0  0  0  0  0
   -3.8575   -4.7307   -0.4682 H   0  0  0  1  0  0  0  0  0  0  0  0
   -3.3129   -3.8772    2.3157 H   0  0  0  1  0  0  0  0  0  0  0  0
   -4.3765   -5.1678    1.8086 H   0  0  0  1  0  0  0  0  0  0  0  0
    7.5792    4.4696    0.4400 H   0  0  0  1  0  0  0  0  0  0  0  0
    6.7406    4.1843   -1.0659 H   0  0  0  1  0  0  0  0  0  0  0  0
    7.8032    2.9607   -0.4118 H   0  0  0  1  0  0  0  0  0  0  0  0
   -5.1069   -2.3171    1.4279 H   0  0  0  1  0  0  0  0  0  0  0  0
   -5.3869   -3.1274    2.9508 H   0  0  0  1  0  0  0  0  0  0  0  0
   -6.8165   -4.7439    1.8090 H   0  0  0  1  0  0  0  0  0  0  0  0
   -6.5618   -3.8894    0.3060 H   0  0  0  1  0  0  0  0  0  0  0  0
  1 34  1  0  0  0  0
  2  4  1  0  0  0  0
  3  4  1  0  0  0  0
  4  5  1  0  0  0  0
  4 32  1  0  0  0  0
  6 10  1  0  0  0  0
  6 26  1  0  0  0  0
  6 42  1  0  0  0  0
  7  8  1  0  0  0  0
  7  9  2  0  0  0  0
  7 13  1  0  0  0  0
  8 43  1  0  0  0  0
  8 44  1  0  0  0  0
  8 45  1  0  0  0  0
 10 46  1  0  0  0  0
 10 47  1  0  0  0  0
 10 48  1  0  0  0  0
 11 27  1  0  0  0  0
 11 49  1  0  0  0  0
 12 26  2  0  0  0  0
 13 23  1  0  0  0  0
 13 50  1  0  0  0  0
 14 41  1  0  0  0  0
 15 24  1  0  0  0  0
 15 32  4  0  0  0  0
 15 34  4  0  0  0  0
 16 41  2  0  0  0  0
 17 18  1  0  0  0  0
 17 20  1  0  0  0  0
 17 51  1  0  0  0  0
 17 52  1  0  0  0  0
 18 23  1  0  0  0  0
 18 53  1  0  0  0  0
 18 54  1  0  0  0  0
 19 21  4  0  0  0  0
 19 29  1  0  0  0  0
 19 32  4  0  0  0  0
 20 24  1  0  0  0  0
 20 55  1  0  0  0  0
 20 56  1  0  0  0  0
 21 25  1  0  0  0  0
 21 34  4  0  0  0  0
 22 27  1  0  0  0  0
 22 28  1  0  0  0  0
 22 57  1  0  0  0  0
 22 58  1  0  0  0  0
 23 26  1  0  0  0  0
 23 59  1  0  0  0  0
 24 60  1  0  0  0  0
 24 61  1  0  0  0  0
 25 35  1  0  0  0  0
 25 62  1  0  0  0  0
 25 63  1  0  0  0  0
 27 31  1  0  0  0  0
 27 64  1  0  0  0  0
 28 30  1  0  0  0  0
 28 65  1  0  0  0  0
 28 66  1  0  0  0  0
 29 31  2  0  0  0  0
 29 67  1  0  0  0  0
 30 33  1  0  0  0  0
 30 68  1  0  0  0  0
 30 69  1  0  0  0  0
 31 70  1  0  0  0  0
 33 38  1  0  0  0  0
 33 71  1  0  0  0  0
 33 72  1  0  0  0  0
 35 36  2  0  0  0  0
 35 73  1  0  0  0  0
 36 37  1  0  0  0  0
 36 74  1  0  0  0  0
 37 39  1  0  0  0  0
 37 75  1  0  0  0  0
 37 76  1  0  0  0  0
 38 77  1  0  0  0  0
 38 78  1  0  0  0  0
 38 79  1  0  0  0  0
 39 40  1  0  0  0  0
 39 80  1  0  0  0  0
 39 81  1  0  0  0  0
 40 41  1  0  0  0  0
 40 82  1  0  0  0  0
 40 83  1  0  0  0  0
M  END
> <ConfClashScore>
0 

> <ConfOneFourInteractionScore>
-0.995779 

> <ConfScore>
-0.0589 

> <ConfScorePBest>
0.00615347 

> <ConfTolerance>
1.8959 

$$$$
9548876
  PyMOL2.2          3D                             0

 83 83  0  0  0  0  0  0  0  0999 V2000
   -5.0023   -1.0204   -0.1075 H   0  0  0  1  0  0  0  0  0  0  0  0
   -3.7683    3.6576    0.6331 H   0  0  0  1  0  0  0  0  0  0  0  0
   -3.5781    3.4943   -1.0960 H   0  0  0  1  0  0  0  0  0  0  0  0
   -3.1915    3.1992   -0.1429 C   0  0  0  1  0  0  0  0  0  0  0  0
   -2.1711    3.5102   -0.0596 H   0  0  0  1  0  0  0  0  0  0  0  0
   -8.4432    4.0875   -6.4911 N   0  0  0  1  0  0  0  0  0  0  0  0
  -10.5513    2.9039   -2.6796 C   0  0  0  1  0  0  0  0  0  0  0  0
  -11.5543    2.0189   -1.9655 C   0  0  0  1  0  0  0  0  0  0  0  0
  -10.3910    4.0792   -2.3534 O   0  0  0  1  0  0  0  0  0  0  0  0
   -8.4356    4.2774   -7.9340 C   0  0  0  1  0  0  0  0  0  0  0  0
    1.5755    3.3743    0.1148 O   0  0  0  1  0  0  0  0  0  0  0  0
   -9.3821    2.0370   -6.4705 O   0  0  0  1  0  0  0  0  0  0  0  0
   -9.8643    2.3213   -3.6750 N   0  0  0  1  0  0  0  0  0  0  0  0
   -2.1816   -0.4375    2.7962 O   0  5  0  1  0  0  0  0  0  0  0  0
   -4.4537    1.0683   -0.2017 N   0  0  0  1  0  0  0  0  0  0  0  0
   -2.1110   -0.5984    5.0642 O   0  0  0  1  0  0  0  0  0  0  0  0
   -7.2586    2.2939   -2.4808 C   0  0  0  1  0  0  0  0  0  0  0  0
   -7.4450    2.3208   -3.9900 C   0  0  0  1  0  0  0  0  0  0  0  0
   -2.3073    0.7646    0.2896 C   0  0  0  1  0  0  0  0  0  0  0  0
   -5.9490    1.6579   -2.0469 C   0  0  0  1  0  0  0  0  0  0  0  0
   -2.9398   -0.4872    0.2818 C   0  0  0  1  0  0  0  0  0  0  0  0
    1.6335    1.6111    1.7232 C   0  0  0  1  0  0  0  0  0  0  0  0
   -8.7708    2.9926   -4.3616 C   0  0  0  1  0  0  0  0  0  0  0  0
   -5.7474    1.6617   -0.5412 C   0  0  0  1  0  0  0  0  0  0  0  0
   -2.2830   -1.8188    0.5593 C   0  0  0  1  0  0  0  0  0  0  0  0
   -8.9218    3.0002   -5.8799 C   0  0  0  1  0  0  0  0  0  0  0  0
    1.3524    1.9882    0.2706 C   0  0  0  1  0  0  0  0  0  0  0  0
    2.9830    2.0992    2.2219 C   0  0  0  1  0  0  0  0  0  0  0  0
   -0.8889    0.9460    0.5733 C   0  0  0  1  0  0  0  0  0  0  0  0
    3.3070    1.6370    3.6342 C   0  0  0  1  0  0  0  0  0  0  0  0
   -0.0617    1.6937   -0.1175 C   0  0  0  1  0  0  0  0  0  0  0  0
   -3.2710    1.7171   -0.0123 C   0  0  0  1  0  0  0  0  0  0  0  0
    4.5929    2.2332    4.1832 C   0  0  0  1  0  0  0  0  0  0  0  0
   -4.2714   -0.2852   -0.0251 C   0  0  0  1  0  0  0  0  0  0  0  0
   -0.8318   -1.8738    0.2310 C   0  0  0  1  0  0  0  0  0  0  0  0
    0.0567   -2.2052    1.1341 C   0  0  0  1  0  0  0  0  0  0  0  0
   -0.2029   -2.8595    2.4646 C   0  0  0  1  0  0  0  0  0  0  0  0
    4.9917    1.6645    5.5352 C   0  0  0  1  0  0  0  0  0  0  0  0
    0.3947   -2.1486    3.6679 C   0  0  0  1  0  0  0  0  0  0  0  0
   -0.0658   -0.7067    3.8059 C   0  0  0  1  0  0  0  0  0  0  0  0
   -1.5394   -0.5793    3.9866 C   0  0  0  1  0  0  0  0  0  0  0  0
   -8.0738    4.8028   -5.9323 H   0  0  0  1  0  0  0  0  0  0  0  0
  -11.1315    1.6688   -1.0471 H   0  0  0  1  0  0  0  0  0  0  0  0
  -11.7981    1.1828   -2.5872 H   0  0  0  1  0  0  0  0  0  0  0  0
  -12.4412    2.5805   -1.7584 H   0  0  0  1  0  0  0  0  0  0  0  0
   -7.5654    4.8322   -8.2166 H   0  0  0  1  0  0  0  0  0  0  0  0
   -9.3125    4.8160   -8.2272 H   0  0  0  1  0  0  0  0  0  0  0  0
   -8.4234    3.3237   -8.4189 H   0  0  0  1  0  0  0  0  0  0  0  0
    2.5005    3.5707    0.2804 H   0  0  0  1  0  0  0  0  0  0  0  0
  -10.1077    1.4123   -3.9488 H   0  0  0  1  0  0  0  0  0  0  0  0
   -8.0649    1.7383   -2.0492 H   0  0  0  1  0  0  0  0  0  0  0  0
   -7.2838    3.3002   -2.1178 H   0  0  0  1  0  0  0  0  0  0  0  0
   -7.4439    1.3174   -4.3616 H   0  0  0  1  0  0  0  0  0  0  0  0
   -6.6387    2.8668   -4.4334 H   0  0  0  1  0  0  0  0  0  0  0  0
   -5.1434    2.1984   -2.4984 H   0  0  0  1  0  0  0  0  0  0  0  0
   -5.9346    0.6440   -2.3886 H   0  0  0  1  0  0  0  0  0  0  0  0
    1.6057    0.5449    1.8084 H   0  0  0  1  0  0  0  0  0  0  0  0
    0.8696    2.0386    2.3386 H   0  0  0  1  0  0  0  0  0  0  0  0
   -8.7274    4.0091   -4.0301 H   0  0  0  1  0  0  0  0  0  0  0  0
   -5.7782    2.6696   -0.1833 H   0  0  0  1  0  0  0  0  0  0  0  0
   -6.5281    1.0946   -0.0790 H   0  0  0  1  0  0  0  0  0  0  0  0
   -2.7848   -2.5655   -0.0200 H   0  0  0  1  0  0  0  0  0  0  0  0
   -2.3982   -2.0372    1.6004 H   0  0  0  1  0  0  0  0  0  0  0  0
    2.0097    1.4311   -0.3638 H   0  0  0  1  0  0  0  0  0  0  0  0
    2.9836    3.1691    2.2065 H   0  0  0  1  0  0  0  0  0  0  0  0
    3.7414    1.7320    1.5624 H   0  0  0  1  0  0  0  0  0  0  0  0
   -0.4995    0.4392    1.3937 H   0  0  0  1  0  0  0  0  0  0  0  0
    3.4024    0.5713    3.6290 H   0  0  0  1  0  0  0  0  0  0  0  0
    2.5001    1.9203    4.2774 H   0  0  0  1  0  0  0  0  0  0  0  0
   -0.4155    2.1130   -1.0011 H   0  0  0  1  0  0  0  0  0  0  0  0
    4.4603    3.2900    4.2855 H   0  0  0  1  0  0  0  0  0  0  0  0
    5.3817    2.0379    3.4870 H   0  0  0  1  0  0  0  0  0  0  0  0
   -0.5178   -1.6449   -0.7337 H   0  0  0  1  0  0  0  0  0  0  0  0
    1.0493   -1.9932    0.9075 H   0  0  0  1  0  0  0  0  0  0  0  0
    0.2030   -3.8490    2.4307 H   0  0  0  1  0  0  0  0  0  0  0  0
   -1.2623   -2.9127    2.6052 H   0  0  0  1  0  0  0  0  0  0  0  0
    5.9388    2.0679    5.8271 H   0  0  0  1  0  0  0  0  0  0  0  0
    5.0639    0.5992    5.4665 H   0  0  0  1  0  0  0  0  0  0  0  0
    4.2531    1.9261    6.2638 H   0  0  0  1  0  0  0  0  0  0  0  0
    1.4604   -2.1567    3.5720 H   0  0  0  1  0  0  0  0  0  0  0  0
    0.1116   -2.6812    4.5517 H   0  0  0  1  0  0  0  0  0  0  0  0
    0.2164   -0.1730    2.9225 H   0  0  0  1  0  0  0  0  0  0  0  0
    0.4201   -0.2738    4.6553 H   0  0  0  1  0  0  0  0  0  0  0  0
  1 34  1  0  0  0  0
  2  4  1  0  0  0  0
  3  4  1  0  0  0  0
  4  5  1  0  0  0  0
  4 32  1  0  0  0  0
  6 10  1  0  0  0  0
  6 26  1  0  0  0  0
  6 42  1  0  0  0  0
  7  8  1  0  0  0  0
  7  9  2  0  0  0  0
  7 13  1  0  0  0  0
  8 43  1  0  0  0  0
  8 44  1  0  0  0  0
  8 45  1  0  0  0  0
 10 46  1  0  0  0  0
 10 47  1  0  0  0  0
 10 48  1  0  0  0  0
 11 27  1  0  0  0  0
 11 49  1  0  0  0  0
 12 26  2  0  0  0  0
 13 23  1  0  0  0  0
 13 50  1  0  0  0  0
 14 41  1  0  0  0  0
 15 24  1  0  0  0  0
 15 32  4  0  0  0  0
 15 34  4  0  0  0  0
 16 41  2  0  0  0  0
 17 18  1  0  0  0  0
 17 20  1  0  0  0  0
 17 51  1  0  0  0  0
 17 52  1  0  0  0  0
 18 23  1  0  0  0  0
 18 53  1  0  0  0  0
 18 54  1  0  0  0  0
 19 21  4  0  0  0  0
 19 29  1  0  0  0  0
 19 32  4  0  0  0  0
 20 24  1  0  0  0  0
 20 55  1  0  0  0  0
 20 56  1  0  0  0  0
 21 25  1  0  0  0  0
 21 34  4  0  0  0  0
 22 27  1  0  0  0  0
 22 28  1  0  0  0  0
 22 57  1  0  0  0  0
 22 58  1  0  0  0  0
 23 26  1  0  0  0  0
 23 59  1  0  0  0  0
 24 60  1  0  0  0  0
 24 61  1  0  0  0  0
 25 35  1  0  0  0  0
 25 62  1  0  0  0  0
 25 63  1  0  0  0  0
 27 31  1  0  0  0  0
 27 64  1  0  0  0  0
 28 30  1  0  0  0  0
 28 65  1  0  0  0  0
 28 66  1  0  0  0  0
 29 31  2  0  0  0  0
 29 67  1  0  0  0  0
 30 33  1  0  0  0  0
 30 68  1  0  0  0  0
 30 69  1  0  0  0  0
 31 70  1  0  0  0  0
 33 38  1  0  0  0  0
 33 71  1  0  0  0  0
 33 72  1  0  0  0  0
 35 36  2  0  0  0  0
 35 73  1  0  0  0  0
 36 37  1  0  0  0  0
 36 74  1  0  0  0  0
 37 39  1  0  0  0  0
 37 75  1  0  0  0  0
 37 76  1  0  0  0  0
 38 77  1  0  0  0  0
 38 78  1  0  0  0  0
 38 79  1  0  0  0  0
 39 40  1  0  0  0  0
 39 80  1  0  0  0  0
 39 81  1  0  0  0  0
 40 41  1  0  0  0  0
 40 82  1  0  0  0  0
 40 83  1  0  0  0  0
M  END
> <ConfClashScore>
0 

> <ConfOneFourInteractionScore>
-0.993476 

> <ConfScore>
-0.0555772 

> <ConfScorePBest>
0.00612499 

> <ConfTolerance>
1.8551 

$$$$
9548876
  PyMOL2.2          3D                             0

 83 83  0  0  0  0  0  0  0  0999 V2000
   -5.0156   -1.0311   -0.1122 H   0  0  0  1  0  0  0  0  0  0  0  0
   -2.8780    3.4447   -1.1328 H   0  0  0  1  0  0  0  0  0  0  0  0
   -2.4145    3.5381    0.5491 H   0  0  0  1  0  0  0  0  0  0  0  0
   -3.1614    3.1894   -0.1331 C   0  0  0  1  0  0  0  0  0  0  0  0
   -4.0997    3.6481    0.0994 H   0  0  0  1  0  0  0  0  0  0  0  0
   -9.5083    5.0331   -2.3613 N   0  0  0  1  0  0  0  0  0  0  0  0
   -9.9914    3.8755   -6.2757 C   0  0  0  1  0  0  0  0  0  0  0  0
   -9.9312    4.0447   -7.7813 C   0  0  0  1  0  0  0  0  0  0  0  0
  -11.0671    3.7793   -5.6865 O   0  0  0  1  0  0  0  0  0  0  0  0
   -9.6122    6.2126   -1.5152 C   0  0  0  1  0  0  0  0  0  0  0  0
    1.7097    1.3769    1.4594 O   0  0  0  1  0  0  0  0  0  0  0  0
   -8.1782    6.0029   -3.8816 O   0  0  0  1  0  0  0  0  0  0  0  0
   -8.8143    3.8393   -5.6491 N   0  0  0  1  0  0  0  0  0  0  0  0
   -4.4557   -7.8234    1.6274 O   0  5  0  1  0  0  0  0  0  0  0  0
   -4.4709    1.0587   -0.2049 N   0  0  0  1  0  0  0  0  0  0  0  0
   -3.0382   -8.5577    0.0069 O   0  0  0  1  0  0  0  0  0  0  0  0
   -7.1765    2.7071   -2.3694 C   0  0  0  1  0  0  0  0  0  0  0  0
   -7.3241    2.9837   -3.8451 C   0  0  0  1  0  0  0  0  0  0  0  0
   -2.3240    0.7587    0.2861 C   0  0  0  1  0  0  0  0  0  0  0  0
   -5.8751    2.0083   -2.0148 C   0  0  0  1  0  0  0  0  0  0  0  0
   -2.9542   -0.4943    0.2774 C   0  0  0  1  0  0  0  0  0  0  0  0
    1.8534    3.2806   -0.0324 C   0  0  0  1  0  0  0  0  0  0  0  0
   -8.6384    3.6834   -4.2032 C   0  0  0  1  0  0  0  0  0  0  0  0
   -5.7658    1.6500   -0.5438 C   0  0  0  1  0  0  0  0  0  0  0  0
   -2.2929   -1.8287    0.5546 C   0  0  0  1  0  0  0  0  0  0  0  0
   -8.7802    5.0202   -3.4814 C   0  0  0  1  0  0  0  0  0  0  0  0
    1.0320    2.5615    1.0447 C   0  0  0  1  0  0  0  0  0  0  0  0
    3.1843    3.8073    0.4768 C   0  0  0  1  0  0  0  0  0  0  0  0
   -0.9211    1.0587    0.5551 C   0  0  0  1  0  0  0  0  0  0  0  0
    4.0287    4.4534   -0.6048 C   0  0  0  1  0  0  0  0  0  0  0  0
   -0.3297    2.2267    0.5242 C   0  0  0  1  0  0  0  0  0  0  0  0
   -3.2895    1.7096   -0.0150 C   0  0  0  1  0  0  0  0  0  0  0  0
    5.4590    4.7247   -0.1705 C   0  0  0  1  0  0  0  0  0  0  0  0
   -4.2861   -0.2945   -0.0292 C   0  0  0  1  0  0  0  0  0  0  0  0
   -1.4659   -2.3594   -0.5730 C   0  0  0  1  0  0  0  0  0  0  0  0
   -1.6345   -3.4926   -1.2118 C   0  0  0  1  0  0  0  0  0  0  0  0
   -2.8534   -4.3755   -1.1864 C   0  0  0  1  0  0  0  0  0  0  0  0
    6.3771    5.1013   -1.3219 C   0  0  0  1  0  0  0  0  0  0  0  0
   -2.8311   -5.4894   -0.1479 C   0  0  0  1  0  0  0  0  0  0  0  0
   -4.0546   -6.3896   -0.2034 C   0  0  0  1  0  0  0  0  0  0  0  0
   -3.7785   -7.6976    0.4548 C   0  0  0  1  0  0  0  0  0  0  0  0
   -9.9891    4.2200   -2.1003 H   0  0  0  1  0  0  0  0  0  0  0  0
   -9.0470    3.5747   -8.1585 H   0  0  0  1  0  0  0  0  0  0  0  0
   -9.9112    5.0870   -8.0223 H   0  0  0  1  0  0  0  0  0  0  0  0
  -10.7928    3.5918   -8.2256 H   0  0  0  1  0  0  0  0  0  0  0  0
   -9.7138    5.9114   -0.4935 H   0  0  0  1  0  0  0  0  0  0  0  0
  -10.4687    6.7847   -1.8050 H   0  0  0  1  0  0  0  0  0  0  0  0
   -8.7306    6.8088   -1.6251 H   0  0  0  1  0  0  0  0  0  0  0  0
    1.3992    0.6316    0.9401 H   0  0  0  1  0  0  0  0  0  0  0  0
   -8.0064    3.9234   -6.1973 H   0  0  0  1  0  0  0  0  0  0  0  0
   -7.9906    2.0868   -2.0575 H   0  0  0  1  0  0  0  0  0  0  0  0
   -7.2155    3.6385   -1.8441 H   0  0  0  1  0  0  0  0  0  0  0  0
   -7.2812    2.0527   -4.3707 H   0  0  0  1  0  0  0  0  0  0  0  0
   -6.5121    3.6073   -4.1562 H   0  0  0  1  0  0  0  0  0  0  0  0
   -5.0622    2.6565   -2.2674 H   0  0  0  1  0  0  0  0  0  0  0  0
   -5.8059    1.1082   -2.5893 H   0  0  0  1  0  0  0  0  0  0  0  0
    1.2808    4.1057   -0.4013 H   0  0  0  1  0  0  0  0  0  0  0  0
    2.0434    2.5928   -0.8297 H   0  0  0  1  0  0  0  0  0  0  0  0
   -9.4285    3.0551   -3.8484 H   0  0  0  1  0  0  0  0  0  0  0  0
   -5.8991    2.5391    0.0365 H   0  0  0  1  0  0  0  0  0  0  0  0
   -6.5367    0.9479   -0.3037 H   0  0  0  1  0  0  0  0  0  0  0  0
   -3.0600   -2.5428    0.7708 H   0  0  0  1  0  0  0  0  0  0  0  0
   -1.6590   -1.7159    1.4092 H   0  0  0  1  0  0  0  0  0  0  0  0
    0.9212    3.2232    1.8783 H   0  0  0  1  0  0  0  0  0  0  0  0
    3.7350    2.9906    0.8946 H   0  0  0  1  0  0  0  0  0  0  0  0
    2.9925    4.5350    1.2374 H   0  0  0  1  0  0  0  0  0  0  0  0
   -0.3187    0.2473    0.8008 H   0  0  0  1  0  0  0  0  0  0  0  0
    3.5753    5.3829   -0.8792 H   0  0  0  1  0  0  0  0  0  0  0  0
    4.0496    3.8019   -1.4533 H   0  0  0  1  0  0  0  0  0  0  0  0
   -0.8649    3.0060    0.0907 H   0  0  0  1  0  0  0  0  0  0  0  0
    5.8448    3.8427    0.2965 H   0  0  0  1  0  0  0  0  0  0  0  0
    5.4525    5.5289    0.5352 H   0  0  0  1  0  0  0  0  0  0  0  0
   -0.6709   -1.7656   -0.8843 H   0  0  0  1  0  0  0  0  0  0  0  0
   -0.8399   -3.8161   -1.7997 H   0  0  0  1  0  0  0  0  0  0  0  0
   -2.9549   -4.8260   -2.1516 H   0  0  0  1  0  0  0  0  0  0  0  0
   -3.7045   -3.7576   -0.9894 H   0  0  0  1  0  0  0  0  0  0  0  0
    6.0056    4.6736   -2.2296 H   0  0  0  1  0  0  0  0  0  0  0  0
    7.3615    4.7289   -1.1292 H   0  0  0  1  0  0  0  0  0  0  0  0
    6.4105    6.1665   -1.4173 H   0  0  0  1  0  0  0  0  0  0  0  0
   -2.7801   -5.0458    0.8244 H   0  0  0  1  0  0  0  0  0  0  0  0
   -1.9606   -6.0895   -0.3128 H   0  0  0  1  0  0  0  0  0  0  0  0
   -4.3184   -6.5604   -1.2262 H   0  0  0  1  0  0  0  0  0  0  0  0
   -4.8673   -5.9085    0.2995 H   0  0  0  1  0  0  0  0  0  0  0  0
  1 34  1  0  0  0  0
  2  4  1  0  0  0  0
  3  4  1  0  0  0  0
  4  5  1  0  0  0  0
  4 32  1  0  0  0  0
  6 10  1  0  0  0  0
  6 26  1  0  0  0  0
  6 42  1  0  0  0  0
  7  8  1  0  0  0  0
  7  9  2  0  0  0  0
  7 13  1  0  0  0  0
  8 43  1  0  0  0  0
  8 44  1  0  0  0  0
  8 45  1  0  0  0  0
 10 46  1  0  0  0  0
 10 47  1  0  0  0  0
 10 48  1  0  0  0  0
 11 27  1  0  0  0  0
 11 49  1  0  0  0  0
 12 26  2  0  0  0  0
 13 23  1  0  0  0  0
 13 50  1  0  0  0  0
 14 41  1  0  0  0  0
 15 24  1  0  0  0  0
 15 32  4  0  0  0  0
 15 34  4  0  0  0  0
 16 41  2  0  0  0  0
 17 18  1  0  0  0  0
 17 20  1  0  0  0  0
 17 51  1  0  0  0  0
 17 52  1  0  0  0  0
 18 23  1  0  0  0  0
 18 53  1  0  0  0  0
 18 54  1  0  0  0  0
 19 21  4  0  0  0  0
 19 29  1  0  0  0  0
 19 32  4  0  0  0  0
 20 24  1  0  0  0  0
 20 55  1  0  0  0  0
 20 56  1  0  0  0  0
 21 25  1  0  0  0  0
 21 34  4  0  0  0  0
 22 27  1  0  0  0  0
 22 28  1  0  0  0  0
 22 57  1  0  0  0  0
 22 58  1  0  0  0  0
 23 26  1  0  0  0  0
 23 59  1  0  0  0  0
 24 60  1  0  0  0  0
 24 61  1  0  0  0  0
 25 35  1  0  0  0  0
 25 62  1  0  0  0  0
 25 63  1  0  0  0  0
 27 31  1  0  0  0  0
 27 64  1  0  0  0  0
 28 30  1  0  0  0  0
 28 65  1  0  0  0  0
 28 66  1  0  0  0  0
 29 31  2  0  0  0  0
 29 67  1  0  0  0  0
 30 33  1  0  0  0  0
 30 68  1  0  0  0  0
 30 69  1  0  0  0  0
 31 70  1  0  0  0  0
 33 38  1  0  0  0  0
 33 71  1  0  0  0  0
 33 72  1  0  0  0  0
 35 36  2  0  0  0  0
 35 73  1  0  0  0  0
 36 37  1  0  0  0  0
 36 74  1  0  0  0  0
 37 39  1  0  0  0  0
 37 75  1  0  0  0  0
 37 76  1  0  0  0  0
 38 77  1  0  0  0  0
 38 78  1  0  0  0  0
 38 79  1  0  0  0  0
 39 40  1  0  0  0  0
 39 80  1  0  0  0  0
 39 81  1  0  0  0  0
 40 41  1  0  0  0  0
 40 82  1  0  0  0  0
 40 83  1  0  0  0  0
M  END
> <ConfClashScore>
0 

> <ConfOneFourInteractionScore>
-0.99476 

> <ConfScore>
-0.0528461 

> <ConfScorePBest>
0.00609651 

> <ConfTolerance>
1.68293 

$$$$
9548876
  PyMOL2.2          3D                             0

 83 83  0  0  0  0  0  0  0  0999 V2000
   -4.9925   -1.0446   -0.1517 H   0  0  0  1  0  0  0  0  0  0  0  0
   -2.7817    3.4374   -1.1144 H   0  0  0  1  0  0  0  0  0  0  0  0
   -2.4994    3.5534    0.6059 H   0  0  0  1  0  0  0  0  0  0  0  0
   -3.1657    3.1879   -0.1473 C   0  0  0  1  0  0  0  0  0  0  0  0
   -4.1290    3.6357   -0.0199 H   0  0  0  1  0  0  0  0  0  0  0  0
  -11.7621    1.9377    1.9054 N   0  0  0  1  0  0  0  0  0  0  0  0
  -11.7087    4.7616    2.9742 C   0  0  0  1  0  0  0  0  0  0  0  0
  -12.1447    5.3428    4.3051 C   0  0  0  1  0  0  0  0  0  0  0  0
  -12.3780    4.9270    1.9553 O   0  0  0  1  0  0  0  0  0  0  0  0
  -12.8668    1.1360    1.4006 C   0  0  0  1  0  0  0  0  0  0  0  0
    1.5947    2.2569    0.8487 O   0  0  0  1  0  0  0  0  0  0  0  0
  -11.0465    2.6250   -0.1200 O   0  0  0  1  0  0  0  0  0  0  0  0
  -10.5603    4.0665    2.9895 N   0  0  0  1  0  0  0  0  0  0  0  0
    3.3189   -3.1368   -4.1969 O   0  5  0  1  0  0  0  0  0  0  0  0
   -4.4595    1.0484   -0.2398 N   0  0  0  1  0  0  0  0  0  0  0  0
    4.1419   -4.1450   -2.3312 O   0  0  0  1  0  0  0  0  0  0  0  0
   -7.8522    2.5782    0.7429 C   0  0  0  1  0  0  0  0  0  0  0  0
   -8.6248    2.7447    2.0425 C   0  0  0  1  0  0  0  0  0  0  0  0
   -2.3217    0.7640    0.2979 C   0  0  0  1  0  0  0  0  0  0  0  0
   -6.5079    1.9053    0.8683 C   0  0  0  1  0  0  0  0  0  0  0  0
   -2.9434   -0.4930    0.2800 C   0  0  0  1  0  0  0  0  0  0  0  0
    2.4272    0.0227    0.8133 C   0  0  0  1  0  0  0  0  0  0  0  0
   -9.9273    3.5075    1.8043 C   0  0  0  1  0  0  0  0  0  0  0  0
   -5.7618    1.6857   -0.4377 C   0  0  0  1  0  0  0  0  0  0  0  0
   -2.3360   -1.8464    0.5648 C   0  0  0  1  0  0  0  0  0  0  0  0
  -10.9509    2.6250    1.0963 C   0  0  0  1  0  0  0  0  0  0  0  0
    1.5433    1.0509    0.0926 C   0  0  0  1  0  0  0  0  0  0  0  0
    3.9001    0.3382    0.7313 C   0  0  0  1  0  0  0  0  0  0  0  0
   -0.9268    1.0742    0.5956 C   0  0  0  1  0  0  0  0  0  0  0  0
    4.8225   -0.6638    1.4062 C   0  0  0  1  0  0  0  0  0  0  0  0
    0.1318    0.5724    0.0469 C   0  0  0  1  0  0  0  0  0  0  0  0
   -3.2866    1.7077   -0.0270 C   0  0  0  1  0  0  0  0  0  0  0  0
    6.2964   -0.3706    1.1835 C   0  0  0  1  0  0  0  0  0  0  0  0
   -4.2697   -0.3030   -0.0557 C   0  0  0  1  0  0  0  0  0  0  0  0
   -1.0099   -1.7389    1.2482 C   0  0  0  1  0  0  0  0  0  0  0  0
    0.1216   -2.1833    0.7612 C   0  0  0  1  0  0  0  0  0  0  0  0
    0.2646   -2.9347   -0.5353 C   0  0  0  1  0  0  0  0  0  0  0  0
    7.2186   -1.3147    1.9360 C   0  0  0  1  0  0  0  0  0  0  0  0
    1.6692   -3.0260   -1.0782 C   0  0  0  1  0  0  0  0  0  0  0  0
    1.7965   -3.6362   -2.4645 C   0  0  0  1  0  0  0  0  0  0  0  0
    3.2024   -3.6807   -2.9558 C   0  0  0  1  0  0  0  0  0  0  0  0
  -11.6079    1.9749    2.8725 H   0  0  0  1  0  0  0  0  0  0  0  0
  -11.2816    5.6161    4.8754 H   0  0  0  1  0  0  0  0  0  0  0  0
  -12.7116    4.6129    4.8442 H   0  0  0  1  0  0  0  0  0  0  0  0
  -12.7485    6.2096    4.1348 H   0  0  0  1  0  0  0  0  0  0  0  0
  -13.2432    1.5736    0.4997 H   0  0  0  1  0  0  0  0  0  0  0  0
  -13.6461    1.1017    2.1329 H   0  0  0  1  0  0  0  0  0  0  0  0
  -12.5231    0.1431    1.1980 H   0  0  0  1  0  0  0  0  0  0  0  0
    2.3865    2.7474    0.6162 H   0  0  0  1  0  0  0  0  0  0  0  0
  -10.1202    3.9266    3.8539 H   0  0  0  1  0  0  0  0  0  0  0  0
   -7.6962    3.5509    0.3253 H   0  0  0  1  0  0  0  0  0  0  0  0
   -8.4517    1.9949    0.0756 H   0  0  0  1  0  0  0  0  0  0  0  0
   -8.0230    3.2875    2.7412 H   0  0  0  1  0  0  0  0  0  0  0  0
   -8.8521    1.7784    2.4418 H   0  0  0  1  0  0  0  0  0  0  0  0
   -6.6589    0.9500    1.3262 H   0  0  0  1  0  0  0  0  0  0  0  0
   -5.8936    2.5115    1.5008 H   0  0  0  1  0  0  0  0  0  0  0  0
    2.2607   -0.9372    0.3708 H   0  0  0  1  0  0  0  0  0  0  0  0
    2.1431   -0.0053    1.8445 H   0  0  0  1  0  0  0  0  0  0  0  0
   -9.6994    4.3161    1.1417 H   0  0  0  1  0  0  0  0  0  0  0  0
   -6.3563    1.0613   -1.0714 H   0  0  0  1  0  0  0  0  0  0  0  0
   -5.6112    2.6339   -0.9101 H   0  0  0  1  0  0  0  0  0  0  0  0
   -2.2051   -2.3667   -0.3610 H   0  0  0  1  0  0  0  0  0  0  0  0
   -3.0035   -2.3979    1.1933 H   0  0  0  1  0  0  0  0  0  0  0  0
    1.9072    1.2023   -0.9022 H   0  0  0  1  0  0  0  0  0  0  0  0
    4.0587    1.2923    1.1889 H   0  0  0  1  0  0  0  0  0  0  0  0
    4.1692    0.3891   -0.3031 H   0  0  0  1  0  0  0  0  0  0  0  0
   -0.7644    1.7839    1.3383 H   0  0  0  1  0  0  0  0  0  0  0  0
    4.6079   -1.6375    1.0179 H   0  0  0  1  0  0  0  0  0  0  0  0
    4.6287   -0.6482    2.4584 H   0  0  0  1  0  0  0  0  0  0  0  0
   -0.0248   -0.2929   -0.5083 H   0  0  0  1  0  0  0  0  0  0  0  0
    6.4962    0.6292    1.5081 H   0  0  0  1  0  0  0  0  0  0  0  0
    6.5048   -0.4549    0.1374 H   0  0  0  1  0  0  0  0  0  0  0  0
   -0.9845   -1.2768    2.1795 H   0  0  0  1  0  0  0  0  0  0  0  0
    0.9858   -2.0036    1.3112 H   0  0  0  1  0  0  0  0  0  0  0  0
   -0.3416   -2.4456   -1.2689 H   0  0  0  1  0  0  0  0  0  0  0  0
   -0.0950   -3.9306   -0.3810 H   0  0  0  1  0  0  0  0  0  0  0  0
    7.5293   -2.1049    1.2849 H   0  0  0  1  0  0  0  0  0  0  0  0
    6.6985   -1.7277    2.7748 H   0  0  0  1  0  0  0  0  0  0  0  0
    8.0777   -0.7763    2.2781 H   0  0  0  1  0  0  0  0  0  0  0  0
    2.2459   -3.6217   -0.4018 H   0  0  0  1  0  0  0  0  0  0  0  0
    2.0731   -2.0359   -1.1156 H   0  0  0  1  0  0  0  0  0  0  0  0
    1.2152   -3.0531   -3.1479 H   0  0  0  1  0  0  0  0  0  0  0  0
    1.4149   -4.6353   -2.4332 H   0  0  0  1  0  0  0  0  0  0  0  0
  1 34  1  0  0  0  0
  2  4  1  0  0  0  0
  3  4  1  0  0  0  0
  4  5  1  0  0  0  0
  4 32  1  0  0  0  0
  6 10  1  0  0  0  0
  6 26  1  0  0  0  0
  6 42  1  0  0  0  0
  7  8  1  0  0  0  0
  7  9  2  0  0  0  0
  7 13  1  0  0  0  0
  8 43  1  0  0  0  0
  8 44  1  0  0  0  0
  8 45  1  0  0  0  0
 10 46  1  0  0  0  0
 10 47  1  0  0  0  0
 10 48  1  0  0  0  0
 11 27  1  0  0  0  0
 11 49  1  0  0  0  0
 12 26  2  0  0  0  0
 13 23  1  0  0  0  0
 13 50  1  0  0  0  0
 14 41  1  0  0  0  0
 15 24  1  0  0  0  0
 15 32  4  0  0  0  0
 15 34  4  0  0  0  0
 16 41  2  0  0  0  0
 17 18  1  0  0  0  0
 17 20  1  0  0  0  0
 17 51  1  0  0  0  0
 17 52  1  0  0  0  0
 18 23  1  0  0  0  0
 18 53  1  0  0  0  0
 18 54  1  0  0  0  0
 19 21  4  0  0  0  0
 19 29  1  0  0  0  0
 19 32  4  0  0  0  0
 20 24  1  0  0  0  0
 20 55  1  0  0  0  0
 20 56  1  0  0  0  0
 21 25  1  0  0  0  0
 21 34  4  0  0  0  0
 22 27  1  0  0  0  0
 22 28  1  0  0  0  0
 22 57  1  0  0  0  0
 22 58  1  0  0  0  0
 23 26  1  0  0  0  0
 23 59  1  0  0  0  0
 24 60  1  0  0  0  0
 24 61  1  0  0  0  0
 25 35  1  0  0  0  0
 25 62  1  0  0  0  0
 25 63  1  0  0  0  0
 27 31  1  0  0  0  0
 27 64  1  0  0  0  0
 28 30  1  0  0  0  0
 28 65  1  0  0  0  0
 28 66  1  0  0  0  0
 29 31  2  0  0  0  0
 29 67  1  0  0  0  0
 30 33  1  0  0  0  0
 30 68  1  0  0  0  0
 30 69  1  0  0  0  0
 31 70  1  0  0  0  0
 33 38  1  0  0  0  0
 33 71  1  0  0  0  0
 33 72  1  0  0  0  0
 35 36  2  0  0  0  0
 35 73  1  0  0  0  0
 36 37  1  0  0  0  0
 36 74  1  0  0  0  0
 37 39  1  0  0  0  0
 37 75  1  0  0  0  0
 37 76  1  0  0  0  0
 38 77  1  0  0  0  0
 38 78  1  0  0  0  0
 38 79  1  0  0  0  0
 39 40  1  0  0  0  0
 39 80  1  0  0  0  0
 39 81  1  0  0  0  0
 40 41  1  0  0  0  0
 40 82  1  0  0  0  0
 40 83  1  0  0  0  0
M  END
> <ConfClashScore>
0 

> <ConfOneFourInteractionScore>
-0.982647 

> <ConfScore>
-0.049766 

> <ConfScorePBest>
0.00606803 

> <ConfTolerance>
1.69408 

$$$$
9548876
  PyMOL2.2          3D                             0

 83 83  0  0  0  0  0  0  0  0999 V2000
   -5.0119   -1.0228   -0.1079 H   0  0  0  1  0  0  0  0  0  0  0  0
   -3.5117    3.4822   -1.1186 H   0  0  0  1  0  0  0  0  0  0  0  0
   -2.1733    3.5036    0.0042 H   0  0  0  1  0  0  0  0  0  0  0  0
   -3.1859    3.1903   -0.1421 C   0  0  0  1  0  0  0  0  0  0  0  0
   -3.8118    3.6493    0.5945 H   0  0  0  1  0  0  0  0  0  0  0  0
  -11.4180    4.5450    2.1653 N   0  0  0  1  0  0  0  0  0  0  0  0
   -8.7454    7.1977    0.7671 C   0  0  0  1  0  0  0  0  0  0  0  0
   -7.7615    8.3500    0.7101 C   0  0  0  1  0  0  0  0  0  0  0  0
   -9.9335    7.3704    0.5084 O   0  0  0  1  0  0  0  0  0  0  0  0
  -12.4643    4.5447    3.1768 C   0  0  0  1  0  0  0  0  0  0  0  0
    2.0496   -0.7593    0.2357 O   0  0  0  1  0  0  0  0  0  0  0  0
   -9.9469    5.7692    3.3745 O   0  0  0  1  0  0  0  0  0  0  0  0
   -8.2766    5.9798    1.1098 N   0  0  0  1  0  0  0  0  0  0  0  0
    0.4642   -6.0255    3.9892 O   0  5  0  1  0  0  0  0  0  0  0  0
   -4.4557    1.0639   -0.2016 N   0  0  0  1  0  0  0  0  0  0  0  0
    1.0466   -8.0134    3.0490 O   0  0  0  1  0  0  0  0  0  0  0  0
   -7.7068    3.0278    0.3455 C   0  0  0  1  0  0  0  0  0  0  0  0
   -8.4148    3.5814    1.5671 C   0  0  0  1  0  0  0  0  0  0  0  0
   -2.3107    0.7524    0.2904 C   0  0  0  1  0  0  0  0  0  0  0  0
   -6.4680    2.2129    0.6843 C   0  0  0  1  0  0  0  0  0  0  0  0
   -2.9477   -0.4971    0.2822 C   0  0  0  1  0  0  0  0  0  0  0  0
    1.8018    1.6058    0.4411 C   0  0  0  1  0  0  0  0  0  0  0  0
   -9.1963    4.8656    1.2850 C   0  0  0  1  0  0  0  0  0  0  0  0
   -5.7227    1.7124   -0.5412 C   0  0  0  1  0  0  0  0  0  0  0  0
   -2.2939   -1.8350    0.5606 C   0  0  0  1  0  0  0  0  0  0  0  0
  -10.2322    5.1271    2.3652 C   0  0  0  1  0  0  0  0  0  0  0  0
    1.4306    0.2501    1.0431 C   0  0  0  1  0  0  0  0  0  0  0  0
    1.5075    1.7054   -1.0351 C   0  0  0  1  0  0  0  0  0  0  0  0
   -0.8991    0.9899    0.5668 C   0  0  0  1  0  0  0  0  0  0  0  0
    1.7547    3.0654   -1.6600 C   0  0  0  1  0  0  0  0  0  0  0  0
   -0.0585    0.1101    1.0567 C   0  0  0  1  0  0  0  0  0  0  0  0
   -3.2708    1.7084   -0.0117 C   0  0  0  1  0  0  0  0  0  0  0  0
    1.5302    3.0878   -3.1641 C   0  0  0  1  0  0  0  0  0  0  0  0
   -4.2784   -0.2902   -0.0250 C   0  0  0  1  0  0  0  0  0  0  0  0
   -1.1203   -2.1476   -0.3125 C   0  0  0  1  0  0  0  0  0  0  0  0
   -0.4484   -3.2778   -0.3630 C   0  0  0  1  0  0  0  0  0  0  0  0
   -0.8698   -4.6095    0.1981 C   0  0  0  1  0  0  0  0  0  0  0  0
    1.7679    4.4502   -3.7875 C   0  0  0  1  0  0  0  0  0  0  0  0
   -0.0245   -5.1292    1.3344 C   0  0  0  1  0  0  0  0  0  0  0  0
   -0.3941   -6.5121    1.8456 C   0  0  0  1  0  0  0  0  0  0  0  0
    0.4454   -6.9532    2.9949 C   0  0  0  1  0  0  0  0  0  0  0  0
  -11.5893    4.1029    1.3076 H   0  0  0  1  0  0  0  0  0  0  0  0
   -8.2584    9.2263    0.3492 H   0  0  0  1  0  0  0  0  0  0  0  0
   -6.9569    8.0995    0.0508 H   0  0  0  1  0  0  0  0  0  0  0  0
   -7.3751    8.5376    1.6901 H   0  0  0  1  0  0  0  0  0  0  0  0
  -12.7571    5.5519    3.3881 H   0  0  0  1  0  0  0  0  0  0  0  0
  -12.0959    4.0858    4.0705 H   0  0  0  1  0  0  0  0  0  0  0  0
  -13.3090    3.9962    2.8157 H   0  0  0  1  0  0  0  0  0  0  0  0
    1.4539   -1.0126   -0.4733 H   0  0  0  1  0  0  0  0  0  0  0  0
   -7.3148    5.8453    1.2410 H   0  0  0  1  0  0  0  0  0  0  0  0
   -7.4140    3.8472   -0.2772 H   0  0  0  1  0  0  0  0  0  0  0  0
   -8.3903    2.4004   -0.1875 H   0  0  0  1  0  0  0  0  0  0  0  0
   -7.6823    3.7883    2.3191 H   0  0  0  1  0  0  0  0  0  0  0  0
   -9.0978    2.8410    1.9280 H   0  0  0  1  0  0  0  0  0  0  0  0
   -6.7672    1.3676    1.2681 H   0  0  0  1  0  0  0  0  0  0  0  0
   -5.8047    2.8263    1.2577 H   0  0  0  1  0  0  0  0  0  0  0  0
    2.8490    1.7677    0.5899 H   0  0  0  1  0  0  0  0  0  0  0  0
    1.2469    2.3662    0.9498 H   0  0  0  1  0  0  0  0  0  0  0  0
   -9.7235    4.7206    0.3652 H   0  0  0  1  0  0  0  0  0  0  0  0
   -6.3421    1.0069   -1.0548 H   0  0  0  1  0  0  0  0  0  0  0  0
   -5.5208    2.5442   -1.1832 H   0  0  0  1  0  0  0  0  0  0  0  0
   -3.0279   -2.6008    0.4199 H   0  0  0  1  0  0  0  0  0  0  0  0
   -1.9634   -1.8396    1.5782 H   0  0  0  1  0  0  0  0  0  0  0  0
    1.7972    0.2013    2.0471 H   0  0  0  1  0  0  0  0  0  0  0  0
    0.4773    1.4570   -1.1832 H   0  0  0  1  0  0  0  0  0  0  0  0
    2.1232    0.9926   -1.5428 H   0  0  0  1  0  0  0  0  0  0  0  0
   -0.5266    1.9382    0.3577 H   0  0  0  1  0  0  0  0  0  0  0  0
    2.7674    3.3498   -1.4638 H   0  0  0  1  0  0  0  0  0  0  0  0
    1.0911    3.7724   -1.2074 H   0  0  0  1  0  0  0  0  0  0  0  0
   -0.4572   -0.7489    1.4865 H   0  0  0  1  0  0  0  0  0  0  0  0
    0.5196    2.7964   -3.3606 H   0  0  0  1  0  0  0  0  0  0  0  0
    2.1988    2.3860   -3.6174 H   0  0  0  1  0  0  0  0  0  0  0  0
   -0.8008   -1.3894   -0.9487 H   0  0  0  1  0  0  0  0  0  0  0  0
    0.4740   -3.2477   -0.8426 H   0  0  0  1  0  0  0  0  0  0  0  0
   -0.8350   -5.3276   -0.5944 H   0  0  0  1  0  0  0  0  0  0  0  0
   -1.8756   -4.5156    0.5510 H   0  0  0  1  0  0  0  0  0  0  0  0
    0.8299    4.8863   -4.0611 H   0  0  0  1  0  0  0  0  0  0  0  0
    2.3783    4.3416   -4.6595 H   0  0  0  1  0  0  0  0  0  0  0  0
    2.2630    5.0837   -3.0815 H   0  0  0  1  0  0  0  0  0  0  0  0
   -0.1108   -4.4423    2.1503 H   0  0  0  1  0  0  0  0  0  0  0  0
    0.9917   -5.1618    1.0010 H   0  0  0  1  0  0  0  0  0  0  0  0
   -0.2738   -7.2138    1.0469 H   0  0  0  1  0  0  0  0  0  0  0  0
   -1.4176   -6.4976    2.1573 H   0  0  0  1  0  0  0  0  0  0  0  0
  1 34  1  0  0  0  0
  2  4  1  0  0  0  0
  3  4  1  0  0  0  0
  4  5  1  0  0  0  0
  4 32  1  0  0  0  0
  6 10  1  0  0  0  0
  6 26  1  0  0  0  0
  6 42  1  0  0  0  0
  7  8  1  0  0  0  0
  7  9  2  0  0  0  0
  7 13  1  0  0  0  0
  8 43  1  0  0  0  0
  8 44  1  0  0  0  0
  8 45  1  0  0  0  0
 10 46  1  0  0  0  0
 10 47  1  0  0  0  0
 10 48  1  0  0  0  0
 11 27  1  0  0  0  0
 11 49  1  0  0  0  0
 12 26  2  0  0  0  0
 13 23  1  0  0  0  0
 13 50  1  0  0  0  0
 14 41  1  0  0  0  0
 15 24  1  0  0  0  0
 15 32  4  0  0  0  0
 15 34  4  0  0  0  0
 16 41  2  0  0  0  0
 17 18  1  0  0  0  0
 17 20  1  0  0  0  0
 17 51  1  0  0  0  0
 17 52  1  0  0  0  0
 18 23  1  0  0  0  0
 18 53  1  0  0  0  0
 18 54  1  0  0  0  0
 19 21  4  0  0  0  0
 19 29  1  0  0  0  0
 19 32  4  0  0  0  0
 20 24  1  0  0  0  0
 20 55  1  0  0  0  0
 20 56  1  0  0  0  0
 21 25  1  0  0  0  0
 21 34  4  0  0  0  0
 22 27  1  0  0  0  0
 22 28  1  0  0  0  0
 22 57  1  0  0  0  0
 22 58  1  0  0  0  0
 23 26  1  0  0  0  0
 23 59  1  0  0  0  0
 24 60  1  0  0  0  0
 24 61  1  0  0  0  0
 25 35  1  0  0  0  0
 25 62  1  0  0  0  0
 25 63  1  0  0  0  0
 27 31  1  0  0  0  0
 27 64  1  0  0  0  0
 28 30  1  0  0  0  0
 28 65  1  0  0  0  0
 28 66  1  0  0  0  0
 29 31  2  0  0  0  0
 29 67  1  0  0  0  0
 30 33  1  0  0  0  0
 30 68  1  0  0  0  0
 30 69  1  0  0  0  0
 31 70  1  0  0  0  0
 33 38  1  0  0  0  0
 33 71  1  0  0  0  0
 33 72  1  0  0  0  0
 35 36  2  0  0  0  0
 35 73  1  0  0  0  0
 36 37  1  0  0  0  0
 36 74  1  0  0  0  0
 37 39  1  0  0  0  0
 37 75  1  0  0  0  0
 37 76  1  0  0  0  0
 38 77  1  0  0  0  0
 38 78  1  0  0  0  0
 38 79  1  0  0  0  0
 39 40  1  0  0  0  0
 39 80  1  0  0  0  0
 39 81  1  0  0  0  0
 40 41  1  0  0  0  0
 40 82  1  0  0  0  0
 40 83  1  0  0  0  0
M  END
> <ConfClashScore>
0 

> <ConfOneFourInteractionScore>
-0.989617 

> <ConfScore>
-0.0494962 

> <ConfScorePBest>
0.00603955 

> <ConfTolerance>
1.59985 

$$$$
9548876
  PyMOL2.2          3D                             0

 83 83  0  0  0  0  0  0  0  0999 V2000
   -5.0124   -1.0265   -0.1049 H   0  0  0  1  0  0  0  0  0  0  0  0
   -4.1621    3.5865   -0.3090 H   0  0  0  1  0  0  0  0  0  0  0  0
   -2.5521    3.4339   -0.9702 H   0  0  0  1  0  0  0  0  0  0  0  0
   -3.1840    3.1855   -0.1432 C   0  0  0  1  0  0  0  0  0  0  0  0
   -2.7763    3.6002    0.7549 H   0  0  0  1  0  0  0  0  0  0  0  0
   -6.5446    6.8680    2.8092 N   0  0  0  1  0  0  0  0  0  0  0  0
   -6.3207    5.9141    5.6363 C   0  0  0  1  0  0  0  0  0  0  0  0
   -7.3582    6.3249    6.6630 C   0  0  0  1  0  0  0  0  0  0  0  0
   -5.1760    6.3636    5.6703 O   0  0  0  1  0  0  0  0  0  0  0  0
   -6.3424    8.1471    2.1452 C   0  0  0  1  0  0  0  0  0  0  0  0
    1.5259    1.5832    1.8741 O   0  0  0  1  0  0  0  0  0  0  0  0
   -4.7197    5.9043    1.9359 O   0  0  0  1  0  0  0  0  0  0  0  0
   -6.7354    5.0409    4.7058 N   0  0  0  1  0  0  0  0  0  0  0  0
   -6.4063   -2.5764   -1.6181 O   0  5  0  1  0  0  0  0  0  0  0  0
   -4.4551    1.0598   -0.2007 N   0  0  0  1  0  0  0  0  0  0  0  0
   -7.9215   -3.9831   -0.6343 O   0  0  0  1  0  0  0  0  0  0  0  0
   -5.7790    2.9890    1.6516 C   0  0  0  1  0  0  0  0  0  0  0  0
   -6.5845    3.5016    2.8300 C   0  0  0  1  0  0  0  0  0  0  0  0
   -2.3101    0.7475    0.2914 C   0  0  0  1  0  0  0  0  0  0  0  0
   -6.5315    2.0859    0.6880 C   0  0  0  1  0  0  0  0  0  0  0  0
   -2.9479   -0.5016    0.2844 C   0  0  0  1  0  0  0  0  0  0  0  0
    1.9039    2.8227   -0.1648 C   0  0  0  1  0  0  0  0  0  0  0  0
   -5.8972    4.6430    3.5847 C   0  0  0  1  0  0  0  0  0  0  0  0
   -5.7217    1.7087   -0.5408 C   0  0  0  1  0  0  0  0  0  0  0  0
   -2.2967   -1.8357    0.5631 C   0  0  0  1  0  0  0  0  0  0  0  0
   -5.6858    5.8528    2.6792 C   0  0  0  1  0  0  0  0  0  0  0  0
    0.9942    2.6053    1.0544 C   0  0  0  1  0  0  0  0  0  0  0  0
    1.9148    1.5915   -1.0548 C   0  0  0  1  0  0  0  0  0  0  0  0
   -0.9072    1.0392    0.5599 C   0  0  0  1  0  0  0  0  0  0  0  0
    2.7753    1.8247   -2.2871 C   0  0  0  1  0  0  0  0  0  0  0  0
   -0.3584    2.2279    0.5393 C   0  0  0  1  0  0  0  0  0  0  0  0
   -3.2697    1.7039   -0.0115 C   0  0  0  1  0  0  0  0  0  0  0  0
    2.9451    0.5837   -3.1467 C   0  0  0  1  0  0  0  0  0  0  0  0
   -4.2785   -0.2942   -0.0229 C   0  0  0  1  0  0  0  0  0  0  0  0
   -2.4406   -2.2477    1.9938 C   0  0  0  1  0  0  0  0  0  0  0  0
   -3.1489   -3.2969    2.4186 C   0  0  0  1  0  0  0  0  0  0  0  0
   -3.7057   -4.2533    1.3933 C   0  0  0  1  0  0  0  0  0  0  0  0
    3.8003    0.8860   -4.3664 C   0  0  0  1  0  0  0  0  0  0  0  0
   -5.1612   -3.9343    1.0933 C   0  0  0  1  0  0  0  0  0  0  0  0
   -5.6005   -4.3726   -0.2943 C   0  0  0  1  0  0  0  0  0  0  0  0
   -6.7714   -3.6408   -0.8544 C   0  0  0  1  0  0  0  0  0  0  0  0
   -7.3383    6.7470    3.3711 H   0  0  0  1  0  0  0  0  0  0  0  0
   -7.5180    7.3814    6.6064 H   0  0  0  1  0  0  0  0  0  0  0  0
   -7.0114    6.0689    7.6423 H   0  0  0  1  0  0  0  0  0  0  0  0
   -8.2774    5.8143    6.4649 H   0  0  0  1  0  0  0  0  0  0  0  0
   -5.7739    8.7934    2.7807 H   0  0  0  1  0  0  0  0  0  0  0  0
   -7.2917    8.5953    1.9385 H   0  0  0  1  0  0  0  0  0  0  0  0
   -5.8130    7.9929    1.2282 H   0  0  0  1  0  0  0  0  0  0  0  0
    1.2615    0.7267    1.5303 H   0  0  0  1  0  0  0  0  0  0  0  0
   -7.6340    4.6578    4.7839 H   0  0  0  1  0  0  0  0  0  0  0  0
   -4.9458    2.4390    2.0363 H   0  0  0  1  0  0  0  0  0  0  0  0
   -5.4248    3.8356    1.1014 H   0  0  0  1  0  0  0  0  0  0  0  0
   -6.7426    2.6915    3.5109 H   0  0  0  1  0  0  0  0  0  0  0  0
   -7.5281    3.8536    2.4685 H   0  0  0  1  0  0  0  0  0  0  0  0
   -7.4169    2.5942    0.3679 H   0  0  0  1  0  0  0  0  0  0  0  0
   -6.8018    1.1888    1.2047 H   0  0  0  1  0  0  0  0  0  0  0  0
    2.9000    3.0213    0.1716 H   0  0  0  1  0  0  0  0  0  0  0  0
    1.5434    3.6587   -0.7269 H   0  0  0  1  0  0  0  0  0  0  0  0
   -4.9471    4.3027    3.9404 H   0  0  0  1  0  0  0  0  0  0  0  0
   -6.3006    1.0375   -1.1401 H   0  0  0  1  0  0  0  0  0  0  0  0
   -5.5127    2.5969   -1.0996 H   0  0  0  1  0  0  0  0  0  0  0  0
   -1.2552   -1.7663    0.3279 H   0  0  0  1  0  0  0  0  0  0  0  0
   -2.7542   -2.5783   -0.0567 H   0  0  0  1  0  0  0  0  0  0  0  0
    0.9185    3.5235    1.5986 H   0  0  0  1  0  0  0  0  0  0  0  0
    0.9138    1.3719   -1.3623 H   0  0  0  1  0  0  0  0  0  0  0  0
    2.3088    0.7635   -0.5033 H   0  0  0  1  0  0  0  0  0  0  0  0
   -0.2893    0.2341    0.7874 H   0  0  0  1  0  0  0  0  0  0  0  0
    3.7430    2.1515   -1.9682 H   0  0  0  1  0  0  0  0  0  0  0  0
    2.3179    2.5885   -2.8806 H   0  0  0  1  0  0  0  0  0  0  0  0
   -0.9243    2.9926    0.1191 H   0  0  0  1  0  0  0  0  0  0  0  0
    1.9823    0.2453   -3.4684 H   0  0  0  1  0  0  0  0  0  0  0  0
    3.4177   -0.1821   -2.5678 H   0  0  0  1  0  0  0  0  0  0  0  0
   -1.9527   -1.6742    2.7112 H   0  0  0  1  0  0  0  0  0  0  0  0
   -3.3130   -3.4514    3.4339 H   0  0  0  1  0  0  0  0  0  0  0  0
   -3.6360   -5.2520    1.7709 H   0  0  0  1  0  0  0  0  0  0  0  0
   -3.1356   -4.1718    0.4915 H   0  0  0  1  0  0  0  0  0  0  0  0
    4.8334    0.7597   -4.1184 H   0  0  0  1  0  0  0  0  0  0  0  0
    3.6297    1.8946   -4.6801 H   0  0  0  1  0  0  0  0  0  0  0  0
    3.5396    0.2164   -5.1593 H   0  0  0  1  0  0  0  0  0  0  0  0
   -5.3005   -2.8766    1.1749 H   0  0  0  1  0  0  0  0  0  0  0  0
   -5.7735   -4.4320    1.8160 H   0  0  0  1  0  0  0  0  0  0  0  0
   -5.8520   -5.4116   -0.2480 H   0  0  0  1  0  0  0  0  0  0  0  0
   -4.7751   -4.2343   -0.9609 H   0  0  0  1  0  0  0  0  0  0  0  0
  1 34  1  0  0  0  0
  2  4  1  0  0  0  0
  3  4  1  0  0  0  0
  4  5  1  0  0  0  0
  4 32  1  0  0  0  0
  6 10  1  0  0  0  0
  6 26  1  0  0  0  0
  6 42  1  0  0  0  0
  7  8  1  0  0  0  0
  7  9  2  0  0  0  0
  7 13  1  0  0  0  0
  8 43  1  0  0  0  0
  8 44  1  0  0  0  0
  8 45  1  0  0  0  0
 10 46  1  0  0  0  0
 10 47  1  0  0  0  0
 10 48  1  0  0  0  0
 11 27  1  0  0  0  0
 11 49  1  0  0  0  0
 12 26  2  0  0  0  0
 13 23  1  0  0  0  0
 13 50  1  0  0  0  0
 14 41  1  0  0  0  0
 15 24  1  0  0  0  0
 15 32  4  0  0  0  0
 15 34  4  0  0  0  0
 16 41  2  0  0  0  0
 17 18  1  0  0  0  0
 17 20  1  0  0  0  0
 17 51  1  0  0  0  0
 17 52  1  0  0  0  0
 18 23  1  0  0  0  0
 18 53  1  0  0  0  0
 18 54  1  0  0  0  0
 19 21  4  0  0  0  0
 19 29  1  0  0  0  0
 19 32  4  0  0  0  0
 20 24  1  0  0  0  0
 20 55  1  0  0  0  0
 20 56  1  0  0  0  0
 21 25  1  0  0  0  0
 21 34  4  0  0  0  0
 22 27  1  0  0  0  0
 22 28  1  0  0  0  0
 22 57  1  0  0  0  0
 22 58  1  0  0  0  0
 23 26  1  0  0  0  0
 23 59  1  0  0  0  0
 24 60  1  0  0  0  0
 24 61  1  0  0  0  0
 25 35  1  0  0  0  0
 25 62  1  0  0  0  0
 25 63  1  0  0  0  0
 27 31  1  0  0  0  0
 27 64  1  0  0  0  0
 28 30  1  0  0  0  0
 28 65  1  0  0  0  0
 28 66  1  0  0  0  0
 29 31  2  0  0  0  0
 29 67  1  0  0  0  0
 30 33  1  0  0  0  0
 30 68  1  0  0  0  0
 30 69  1  0  0  0  0
 31 70  1  0  0  0  0
 33 38  1  0  0  0  0
 33 71  1  0  0  0  0
 33 72  1  0  0  0  0
 35 36  2  0  0  0  0
 35 73  1  0  0  0  0
 36 37  1  0  0  0  0
 36 74  1  0  0  0  0
 37 39  1  0  0  0  0
 37 75  1  0  0  0  0
 37 76  1  0  0  0  0
 38 77  1  0  0  0  0
 38 78  1  0  0  0  0
 38 79  1  0  0  0  0
 39 40  1  0  0  0  0
 39 80  1  0  0  0  0
 39 81  1  0  0  0  0
 40 41  1  0  0  0  0
 40 82  1  0  0  0  0
 40 83  1  0  0  0  0
M  END
> <ConfClashScore>
0 

> <ConfOneFourInteractionScore>
-0.987163 

> <ConfScore>
-0.049472 

> <ConfScorePBest>
0.00601107 

> <ConfTolerance>
2.06625 

$$$$
9548876
  PyMOL2.2          3D                             0

 83 83  0  0  0  0  0  0  0  0999 V2000
   -5.0175   -1.0455   -0.0948 H   0  0  0  1  0  0  0  0  0  0  0  0
   -3.3202    3.6476    0.8148 H   0  0  0  1  0  0  0  0  0  0  0  0
   -3.8463    3.5749   -0.8497 H   0  0  0  1  0  0  0  0  0  0  0  0
   -3.1475    3.1898   -0.1368 C   0  0  0  1  0  0  0  0  0  0  0  0
   -2.1509    3.4061   -0.4607 H   0  0  0  1  0  0  0  0  0  0  0  0
   -7.8230   -2.2802    3.4596 N   0  0  0  1  0  0  0  0  0  0  0  0
  -10.5753   -1.8683    2.7959 C   0  0  0  1  0  0  0  0  0  0  0  0
  -11.7719   -2.0034    3.6918 C   0  0  0  1  0  0  0  0  0  0  0  0
  -10.1893   -2.7404    2.0407 O   0  0  0  1  0  0  0  0  0  0  0  0
   -7.0844   -3.5133    3.6867 C   0  0  0  1  0  0  0  0  0  0  0  0
    1.8694    1.1941    0.9720 O   0  0  0  1  0  0  0  0  0  0  0  0
   -6.8817   -1.8486    1.4724 O   0  0  0  1  0  0  0  0  0  0  0  0
   -9.9237   -0.7038    2.8634 N   0  0  0  1  0  0  0  0  0  0  0  0
   -6.2688   -7.5879    3.9578 O   0  5  0  1  0  0  0  0  0  0  0  0
   -4.4951    1.0491   -0.2066 N   0  0  0  1  0  0  0  0  0  0  0  0
   -4.8971   -8.2843    2.3040 O   0  0  0  1  0  0  0  0  0  0  0  0
   -6.8206    1.2254    1.7312 C   0  0  0  1  0  0  0  0  0  0  0  0
   -8.0992    0.9045    2.4879 C   0  0  0  1  0  0  0  0  0  0  0  0
   -2.3474    0.7776    0.2975 C   0  0  0  1  0  0  0  0  0  0  0  0
   -6.9364    1.0053    0.2317 C   0  0  0  1  0  0  0  0  0  0  0  0
   -2.9639   -0.4822    0.2989 C   0  0  0  1  0  0  0  0  0  0  0  0
    1.7422    3.5882    0.8223 C   0  0  0  1  0  0  0  0  0  0  0  0
   -8.7077   -0.4485    2.1058 C   0  0  0  1  0  0  0  0  0  0  0  0
   -5.7946    1.6227   -0.5576 C   0  0  0  1  0  0  0  0  0  0  0  0
   -2.2334   -1.7886    0.5016 C   0  0  0  1  0  0  0  0  0  0  0  0
   -7.7011   -1.5723    2.3331 C   0  0  0  1  0  0  0  0  0  0  0  0
    1.0751    2.3082    1.3129 C   0  0  0  1  0  0  0  0  0  0  0  0
    3.1095    3.7930    1.3795 C   0  0  0  1  0  0  0  0  0  0  0  0
   -0.9389    1.0413    0.5780 C   0  0  0  1  0  0  0  0  0  0  0  0
    3.8224    5.0764    1.0320 C   0  0  0  1  0  0  0  0  0  0  0  0
   -0.2918    2.1733    0.7208 C   0  0  0  1  0  0  0  0  0  0  0  0
   -3.3217    1.7148   -0.0180 C   0  0  0  1  0  0  0  0  0  0  0  0
    5.1950    5.1960    1.6738 C   0  0  0  1  0  0  0  0  0  0  0  0
   -4.2964   -0.3002   -0.0160 C   0  0  0  1  0  0  0  0  0  0  0  0
   -2.6261   -2.8736   -0.4466 C   0  0  0  1  0  0  0  0  0  0  0  0
   -3.2422   -3.9665   -0.0712 C   0  0  0  1  0  0  0  0  0  0  0  0
   -3.9336   -4.2117    1.2417 C   0  0  0  1  0  0  0  0  0  0  0  0
    5.9816    6.4047    1.1933 C   0  0  0  1  0  0  0  0  0  0  0  0
   -4.4947   -5.5808    1.4224 C   0  0  0  1  0  0  0  0  0  0  0  0
   -5.1295   -5.9130    2.7664 C   0  0  0  1  0  0  0  0  0  0  0  0
   -5.3856   -7.3697    2.9469 C   0  0  0  1  0  0  0  0  0  0  0  0
   -8.4311   -1.9578    4.1573 H   0  0  0  1  0  0  0  0  0  0  0  0
  -11.4835   -2.4851    4.6026 H   0  0  0  1  0  0  0  0  0  0  0  0
  -12.5206   -2.5890    3.2004 H   0  0  0  1  0  0  0  0  0  0  0  0
  -12.1646   -1.0325    3.9109 H   0  0  0  1  0  0  0  0  0  0  0  0
   -6.6744   -3.5072    4.6751 H   0  0  0  1  0  0  0  0  0  0  0  0
   -6.2915   -3.5905    2.9724 H   0  0  0  1  0  0  0  0  0  0  0  0
   -7.7441   -4.3489    3.5797 H   0  0  0  1  0  0  0  0  0  0  0  0
    1.3158    0.5129    0.5833 H   0  0  0  1  0  0  0  0  0  0  0  0
  -10.2769    0.0029    3.4432 H   0  0  0  1  0  0  0  0  0  0  0  0
   -6.0381    0.5996    2.1065 H   0  0  0  1  0  0  0  0  0  0  0  0
   -6.5719    2.2514    1.9052 H   0  0  0  1  0  0  0  0  0  0  0  0
   -8.8174    1.6701    2.2806 H   0  0  0  1  0  0  0  0  0  0  0  0
   -7.8802    0.8943    3.5352 H   0  0  0  1  0  0  0  0  0  0  0  0
   -7.8549    1.4388   -0.1049 H   0  0  0  1  0  0  0  0  0  0  0  0
   -6.9485   -0.0480    0.0433 H   0  0  0  1  0  0  0  0  0  0  0  0
    1.1318    4.4196    1.1071 H   0  0  0  1  0  0  0  0  0  0  0  0
    1.8134    3.5463   -0.2445 H   0  0  0  1  0  0  0  0  0  0  0  0
   -8.9459   -0.4216    1.0630 H   0  0  0  1  0  0  0  0  0  0  0  0
   -5.9710    1.4595   -1.6003 H   0  0  0  1  0  0  0  0  0  0  0  0
   -5.7701    2.6739   -0.3597 H   0  0  0  1  0  0  0  0  0  0  0  0
   -2.4281   -2.1288    1.4972 H   0  0  0  1  0  0  0  0  0  0  0  0
   -1.1854   -1.6066    0.3849 H   0  0  0  1  0  0  0  0  0  0  0  0
    0.9753    2.3694    2.3765 H   0  0  0  1  0  0  0  0  0  0  0  0
    3.7198    2.9848    1.0341 H   0  0  0  1  0  0  0  0  0  0  0  0
    3.0299    3.7501    2.4457 H   0  0  0  1  0  0  0  0  0  0  0  0
   -0.3508    0.1898    0.6819 H   0  0  0  1  0  0  0  0  0  0  0  0
    3.2212    5.8981    1.3610 H   0  0  0  1  0  0  0  0  0  0  0  0
    3.9395    5.1224   -0.0305 H   0  0  0  1  0  0  0  0  0  0  0  0
   -0.7643    3.0417    0.3982 H   0  0  0  1  0  0  0  0  0  0  0  0
    5.7550    4.3136    1.4442 H   0  0  0  1  0  0  0  0  0  0  0  0
    5.0685    5.2730    2.7335 H   0  0  0  1  0  0  0  0  0  0  0  0
   -2.3993   -2.7554   -1.4546 H   0  0  0  1  0  0  0  0  0  0  0  0
   -3.2546   -4.7499   -0.7552 H   0  0  0  1  0  0  0  0  0  0  0  0
   -4.7381   -3.5114    1.3269 H   0  0  0  1  0  0  0  0  0  0  0  0
   -3.2254   -4.0392    2.0250 H   0  0  0  1  0  0  0  0  0  0  0  0
    5.3146    7.1074    0.7394 H   0  0  0  1  0  0  0  0  0  0  0  0
    6.7122    6.0925    0.4766 H   0  0  0  1  0  0  0  0  0  0  0  0
    6.4717    6.8649    2.0257 H   0  0  0  1  0  0  0  0  0  0  0  0
   -3.6971   -6.2765    1.2649 H   0  0  0  1  0  0  0  0  0  0  0  0
   -5.2442   -5.7208    0.6716 H   0  0  0  1  0  0  0  0  0  0  0  0
   -6.0609   -5.3916    2.8413 H   0  0  0  1  0  0  0  0  0  0  0  0
   -4.4724   -5.5838    3.5441 H   0  0  0  1  0  0  0  0  0  0  0  0
  1 34  1  0  0  0  0
  2  4  1  0  0  0  0
  3  4  1  0  0  0  0
  4  5  1  0  0  0  0
  4 32  1  0  0  0  0
  6 10  1  0  0  0  0
  6 26  1  0  0  0  0
  6 42  1  0  0  0  0
  7  8  1  0  0  0  0
  7  9  2  0  0  0  0
  7 13  1  0  0  0  0
  8 43  1  0  0  0  0
  8 44  1  0  0  0  0
  8 45  1  0  0  0  0
 10 46  1  0  0  0  0
 10 47  1  0  0  0  0
 10 48  1  0  0  0  0
 11 27  1  0  0  0  0
 11 49  1  0  0  0  0
 12 26  2  0  0  0  0
 13 23  1  0  0  0  0
 13 50  1  0  0  0  0
 14 41  1  0  0  0  0
 15 24  1  0  0  0  0
 15 32  4  0  0  0  0
 15 34  4  0  0  0  0
 16 41  2  0  0  0  0
 17 18  1  0  0  0  0
 17 20  1  0  0  0  0
 17 51  1  0  0  0  0
 17 52  1  0  0  0  0
 18 23  1  0  0  0  0
 18 53  1  0  0  0  0
 18 54  1  0  0  0  0
 19 21  4  0  0  0  0
 19 29  1  0  0  0  0
 19 32  4  0  0  0  0
 20 24  1  0  0  0  0
 20 55  1  0  0  0  0
 20 56  1  0  0  0  0
 21 25  1  0  0  0  0
 21 34  4  0  0  0  0
 22 27  1  0  0  0  0
 22 28  1  0  0  0  0
 22 57  1  0  0  0  0
 22 58  1  0  0  0  0
 23 26  1  0  0  0  0
 23 59  1  0  0  0  0
 24 60  1  0  0  0  0
 24 61  1  0  0  0  0
 25 35  1  0  0  0  0
 25 62  1  0  0  0  0
 25 63  1  0  0  0  0
 27 31  1  0  0  0  0
 27 64  1  0  0  0  0
 28 30  1  0  0  0  0
 28 65  1  0  0  0  0
 28 66  1  0  0  0  0
 29 31  2  0  0  0  0
 29 67  1  0  0  0  0
 30 33  1  0  0  0  0
 30 68  1  0  0  0  0
 30 69  1  0  0  0  0
 31 70  1  0  0  0  0
 33 38  1  0  0  0  0
 33 71  1  0  0  0  0
 33 72  1  0  0  0  0
 35 36  2  0  0  0  0
 35 73  1  0  0  0  0
 36 37  1  0  0  0  0
 36 74  1  0  0  0  0
 37 39  1  0  0  0  0
 37 75  1  0  0  0  0
 37 76  1  0  0  0  0
 38 77  1  0  0  0  0
 38 78  1  0  0  0  0
 38 79  1  0  0  0  0
 39 40  1  0  0  0  0
 39 80  1  0  0  0  0
 39 81  1  0  0  0  0
 40 41  1  0  0  0  0
 40 82  1  0  0  0  0
 40 83  1  0  0  0  0
M  END
> <ConfClashScore>
0.0003464 

> <ConfOneFourInteractionScore>
-0.985008 

> <ConfScore>
-0.0488158 

> <ConfScorePBest>
0.00598259 

> <ConfTolerance>
1.73608 

$$$$
9548876
  PyMOL2.2          3D                             0

 83 83  0  0  0  0  0  0  0  0999 V2000
   -5.0047   -1.0406   -0.1131 H   0  0  0  1  0  0  0  0  0  0  0  0
   -2.1914    3.4940    0.1589 H   0  0  0  1  0  0  0  0  0  0  0  0
   -3.8961    3.6581    0.5047 H   0  0  0  1  0  0  0  0  0  0  0  0
   -3.1751    3.1907   -0.1329 C   0  0  0  1  0  0  0  0  0  0  0  0
   -3.3522    3.4831   -1.1469 H   0  0  0  1  0  0  0  0  0  0  0  0
  -12.1871    1.1313    2.1891 N   0  0  0  1  0  0  0  0  0  0  0  0
  -10.6963    4.2085   -0.7779 C   0  0  0  1  0  0  0  0  0  0  0  0
  -10.7082    5.7029   -1.0343 C   0  0  0  1  0  0  0  0  0  0  0  0
  -10.8493    3.4022   -1.6945 O   0  0  0  1  0  0  0  0  0  0  0  0
  -12.9792    0.7777    3.3576 C   0  0  0  1  0  0  0  0  0  0  0  0
    1.9611    0.1164    2.1797 O   0  0  0  1  0  0  0  0  0  0  0  0
  -11.5484    3.1266    2.9841 O   0  0  0  1  0  0  0  0  0  0  0  0
  -10.5100    3.8372    0.4987 N   0  0  0  1  0  0  0  0  0  0  0  0
   -3.4547   -6.4483    0.3461 O   0  5  0  1  0  0  0  0  0  0  0  0
   -4.4722    1.0524   -0.2050 N   0  0  0  1  0  0  0  0  0  0  0  0
   -3.2193   -8.3161   -0.9572 O   0  0  0  1  0  0  0  0  0  0  0  0
   -8.1452    2.0758    0.1931 C   0  0  0  1  0  0  0  0  0  0  0  0
   -9.1640    1.9609    1.3165 C   0  0  0  1  0  0  0  0  0  0  0  0
   -2.3234    0.7647    0.2850 C   0  0  0  1  0  0  0  0  0  0  0  0
   -6.7555    1.6079    0.5902 C   0  0  0  1  0  0  0  0  0  0  0  0
   -2.9462   -0.4919    0.2760 C   0  0  0  1  0  0  0  0  0  0  0  0
    2.2544   -0.1894   -0.2136 C   0  0  0  1  0  0  0  0  0  0  0  0
  -10.5647    2.4451    0.9193 C   0  0  0  1  0  0  0  0  0  0  0  0
   -5.7468    1.6868   -0.5430 C   0  0  0  1  0  0  0  0  0  0  0  0
   -2.2790   -1.8187    0.5516 C   0  0  0  1  0  0  0  0  0  0  0  0
  -11.5032    2.2763    2.1104 C   0  0  0  1  0  0  0  0  0  0  0  0
    1.4801    0.4919    0.8983 C   0  0  0  1  0  0  0  0  0  0  0  0
    1.8225    0.2405   -1.5936 C   0  0  0  1  0  0  0  0  0  0  0  0
   -0.9127    1.0183    0.5609 C   0  0  0  1  0  0  0  0  0  0  0  0
    2.5042   -0.4681   -2.7377 C   0  0  0  1  0  0  0  0  0  0  0  0
    0.0324    0.1363    0.8069 C   0  0  0  1  0  0  0  0  0  0  0  0
   -3.2945    1.7101   -0.0154 C   0  0  0  1  0  0  0  0  0  0  0  0
    2.0599    0.0260   -4.1014 C   0  0  0  1  0  0  0  0  0  0  0  0
   -4.2794   -0.2998   -0.0300 C   0  0  0  1  0  0  0  0  0  0  0  0
   -1.3237   -2.2074   -0.5316 C   0  0  0  1  0  0  0  0  0  0  0  0
   -0.8453   -3.4154   -0.7118 C   0  0  0  1  0  0  0  0  0  0  0  0
   -1.3577   -4.6864   -0.1124 C   0  0  0  1  0  0  0  0  0  0  0  0
    2.7104   -0.7212   -5.2543 C   0  0  0  1  0  0  0  0  0  0  0  0
   -0.7502   -5.9317   -0.7448 C   0  0  0  1  0  0  0  0  0  0  0  0
   -1.2681   -7.2300   -0.1400 C   0  0  0  1  0  0  0  0  0  0  0  0
   -2.7388   -7.4045   -0.3042 C   0  0  0  1  0  0  0  0  0  0  0  0
  -12.1543    0.5079    1.4337 H   0  0  0  1  0  0  0  0  0  0  0  0
  -11.6846    6.0919   -0.8339 H   0  0  0  1  0  0  0  0  0  0  0  0
  -10.4522    5.8913   -2.0560 H   0  0  0  1  0  0  0  0  0  0  0  0
   -9.9961    6.1801   -0.3938 H   0  0  0  1  0  0  0  0  0  0  0  0
  -12.4859    1.1241    4.2417 H   0  0  0  1  0  0  0  0  0  0  0  0
  -13.0900   -0.2856    3.4047 H   0  0  0  1  0  0  0  0  0  0  0  0
  -13.9441    1.2344    3.2857 H   0  0  0  1  0  0  0  0  0  0  0  0
    2.8595    0.4359    2.2911 H   0  0  0  1  0  0  0  0  0  0  0  0
  -10.3310    4.5277    1.1707 H   0  0  0  1  0  0  0  0  0  0  0  0
   -8.0851    3.1012   -0.1068 H   0  0  0  1  0  0  0  0  0  0  0  0
   -8.4806    1.4816   -0.6311 H   0  0  0  1  0  0  0  0  0  0  0  0
   -8.8242    2.5480    2.1441 H   0  0  0  1  0  0  0  0  0  0  0  0
   -9.2307    0.9342    1.6104 H   0  0  0  1  0  0  0  0  0  0  0  0
   -6.8203    0.5909    0.9165 H   0  0  0  1  0  0  0  0  0  0  0  0
   -6.4088    2.2202    1.3963 H   0  0  0  1  0  0  0  0  0  0  0  0
    2.1123   -1.2465   -0.1276 H   0  0  0  1  0  0  0  0  0  0  0  0
    3.2924    0.0422   -0.0954 H   0  0  0  1  0  0  0  0  0  0  0  0
  -10.9202    1.8385    0.1127 H   0  0  0  1  0  0  0  0  0  0  0  0
   -6.1565    1.1969   -1.4015 H   0  0  0  1  0  0  0  0  0  0  0  0
   -5.5673    2.7167   -0.7712 H   0  0  0  1  0  0  0  0  0  0  0  0
   -3.0334   -2.5732    0.6325 H   0  0  0  1  0  0  0  0  0  0  0  0
   -1.7429   -1.7492    1.4750 H   0  0  0  1  0  0  0  0  0  0  0  0
    1.5741    1.5505    0.7745 H   0  0  0  1  0  0  0  0  0  0  0  0
    2.0205    1.2877   -1.6896 H   0  0  0  1  0  0  0  0  0  0  0  0
    0.7701    0.0668   -1.6786 H   0  0  0  1  0  0  0  0  0  0  0  0
   -0.6191    2.0160    0.5633 H   0  0  0  1  0  0  0  0  0  0  0  0
    2.2859   -1.5132   -2.6678 H   0  0  0  1  0  0  0  0  0  0  0  0
    3.5598   -0.3170   -2.6495 H   0  0  0  1  0  0  0  0  0  0  0  0
   -0.2423   -0.8573    0.9445 H   0  0  0  1  0  0  0  0  0  0  0  0
    2.3105    1.0629   -4.1848 H   0  0  0  1  0  0  0  0  0  0  0  0
    0.9991   -0.0922   -4.1760 H   0  0  0  1  0  0  0  0  0  0  0  0
   -1.0157   -1.4645   -1.1911 H   0  0  0  1  0  0  0  0  0  0  0  0
   -0.0203   -3.4984   -1.3396 H   0  0  0  1  0  0  0  0  0  0  0  0
   -2.4191   -4.7211   -0.2435 H   0  0  0  1  0  0  0  0  0  0  0  0
   -1.1266   -4.6877    0.9323 H   0  0  0  1  0  0  0  0  0  0  0  0
    3.4758   -0.1121   -5.6881 H   0  0  0  1  0  0  0  0  0  0  0  0
    1.9717   -0.9465   -5.9949 H   0  0  0  1  0  0  0  0  0  0  0  0
    3.1415   -1.6308   -4.8915 H   0  0  0  1  0  0  0  0  0  0  0  0
    0.3111   -5.8957   -0.6131 H   0  0  0  1  0  0  0  0  0  0  0  0
   -0.9807   -5.9285   -1.7897 H   0  0  0  1  0  0  0  0  0  0  0  0
   -1.0393   -7.2340    0.9052 H   0  0  0  1  0  0  0  0  0  0  0  0
   -0.7726   -8.0495   -0.6173 H   0  0  0  1  0  0  0  0  0  0  0  0
  1 34  1  0  0  0  0
  2  4  1  0  0  0  0
  3  4  1  0  0  0  0
  4  5  1  0  0  0  0
  4 32  1  0  0  0  0
  6 10  1  0  0  0  0
  6 26  1  0  0  0  0
  6 42  1  0  0  0  0
  7  8  1  0  0  0  0
  7  9  2  0  0  0  0
  7 13  1  0  0  0  0
  8 43  1  0  0  0  0
  8 44  1  0  0  0  0
  8 45  1  0  0  0  0
 10 46  1  0  0  0  0
 10 47  1  0  0  0  0
 10 48  1  0  0  0  0
 11 27  1  0  0  0  0
 11 49  1  0  0  0  0
 12 26  2  0  0  0  0
 13 23  1  0  0  0  0
 13 50  1  0  0  0  0
 14 41  1  0  0  0  0
 15 24  1  0  0  0  0
 15 32  4  0  0  0  0
 15 34  4  0  0  0  0
 16 41  2  0  0  0  0
 17 18  1  0  0  0  0
 17 20  1  0  0  0  0
 17 51  1  0  0  0  0
 17 52  1  0  0  0  0
 18 23  1  0  0  0  0
 18 53  1  0  0  0  0
 18 54  1  0  0  0  0
 19 21  4  0  0  0  0
 19 29  1  0  0  0  0
 19 32  4  0  0  0  0
 20 24  1  0  0  0  0
 20 55  1  0  0  0  0
 20 56  1  0  0  0  0
 21 25  1  0  0  0  0
 21 34  4  0  0  0  0
 22 27  1  0  0  0  0
 22 28  1  0  0  0  0
 22 57  1  0  0  0  0
 22 58  1  0  0  0  0
 23 26  1  0  0  0  0
 23 59  1  0  0  0  0
 24 60  1  0  0  0  0
 24 61  1  0  0  0  0
 25 35  1  0  0  0  0
 25 62  1  0  0  0  0
 25 63  1  0  0  0  0
 27 31  1  0  0  0  0
 27 64  1  0  0  0  0
 28 30  1  0  0  0  0
 28 65  1  0  0  0  0
 28 66  1  0  0  0  0
 29 31  2  0  0  0  0
 29 67  1  0  0  0  0
 30 33  1  0  0  0  0
 30 68  1  0  0  0  0
 30 69  1  0  0  0  0
 31 70  1  0  0  0  0
 33 38  1  0  0  0  0
 33 71  1  0  0  0  0
 33 72  1  0  0  0  0
 35 36  2  0  0  0  0
 35 73  1  0  0  0  0
 36 37  1  0  0  0  0
 36 74  1  0  0  0  0
 37 39  1  0  0  0  0
 37 75  1  0  0  0  0
 37 76  1  0  0  0  0
 38 77  1  0  0  0  0
 38 78  1  0  0  0  0
 38 79  1  0  0  0  0
 39 40  1  0  0  0  0
 39 80  1  0  0  0  0
 39 81  1  0  0  0  0
 40 41  1  0  0  0  0
 40 82  1  0  0  0  0
 40 83  1  0  0  0  0
M  END
> <ConfClashScore>
0 

> <ConfOneFourInteractionScore>
-0.991283 

> <ConfScore>
-0.047712 

> <ConfScorePBest>
0.00595411 

> <ConfTolerance>
1.77149 

$$$$
9548876
  PyMOL2.2          3D                             0

 83 83  0  0  0  0  0  0  0  0999 V2000
   -5.0154   -1.0401   -0.1068 H   0  0  0  1  0  0  0  0  0  0  0  0
   -4.0341    3.5767   -0.6167 H   0  0  0  1  0  0  0  0  0  0  0  0
   -2.2971    3.4183   -0.7176 H   0  0  0  1  0  0  0  0  0  0  0  0
   -3.1636    3.1814   -0.1362 C   0  0  0  1  0  0  0  0  0  0  0  0
   -3.0681    3.6118    0.8387 H   0  0  0  1  0  0  0  0  0  0  0  0
   -7.4657   -0.9343   -7.2892 N   0  0  0  1  0  0  0  0  0  0  0  0
   -4.9418    1.3241   -6.0641 C   0  0  0  1  0  0  0  0  0  0  0  0
   -4.8798    2.7145   -6.6659 C   0  0  0  1  0  0  0  0  0  0  0  0
   -3.9217    0.6605   -5.8836 O   0  0  0  1  0  0  0  0  0  0  0  0
   -8.3359   -1.6327   -8.2234 C   0  0  0  1  0  0  0  0  0  0  0  0
    1.7358    2.0472    0.8785 O   0  0  0  1  0  0  0  0  0  0  0  0
   -8.3063   -1.9264   -5.4642 O   0  0  0  1  0  0  0  0  0  0  0  0
   -6.1685    0.8793   -5.7488 N   0  0  0  1  0  0  0  0  0  0  0  0
   -0.2117   -6.2262    4.8450 O   0  5  0  1  0  0  0  0  0  0  0  0
   -4.4720    1.0499   -0.2035 N   0  0  0  1  0  0  0  0  0  0  0  0
   -1.5805   -6.3593    3.0143 O   0  0  0  1  0  0  0  0  0  0  0  0
   -6.0608    0.4950   -2.7062 C   0  0  0  1  0  0  0  0  0  0  0  0
   -6.9376   -0.2212   -3.6423 C   0  0  0  1  0  0  0  0  0  0  0  0
   -2.3247    0.7519    0.2872 C   0  0  0  1  0  0  0  0  0  0  0  0
   -6.6798    0.8367   -1.3615 C   0  0  0  1  0  0  0  0  0  0  0  0
   -2.9542   -0.5014    0.2811 C   0  0  0  1  0  0  0  0  0  0  0  0
    1.7969    0.6027    2.7792 C   0  0  0  1  0  0  0  0  0  0  0  0
   -6.5162   -0.3896   -5.1045 C   0  0  0  1  0  0  0  0  0  0  0  0
   -5.7431    1.6902   -0.5430 C   0  0  0  1  0  0  0  0  0  0  0  0
   -2.2921   -1.8349    0.5606 C   0  0  0  1  0  0  0  0  0  0  0  0
   -7.5317   -1.1306   -5.9692 C   0  0  0  1  0  0  0  0  0  0  0  0
    1.4349    0.7165    1.2945 C   0  0  0  1  0  0  0  0  0  0  0  0
    1.4815   -0.7871    3.3054 C   0  0  0  1  0  0  0  0  0  0  0  0
   -0.9324    1.1046    0.5477 C   0  0  0  1  0  0  0  0  0  0  0  0
    1.6711   -0.9200    4.8068 C   0  0  0  1  0  0  0  0  0  0  0  0
   -0.0010    0.3553    1.0823 C   0  0  0  1  0  0  0  0  0  0  0  0
   -3.2908    1.7018   -0.0153 C   0  0  0  1  0  0  0  0  0  0  0  0
    1.3937   -2.3326    5.2579 C   0  0  0  1  0  0  0  0  0  0  0  0
   -4.2863   -0.3029   -0.0254 C   0  0  0  1  0  0  0  0  0  0  0  0
   -1.2138   -2.1494   -0.4273 C   0  0  0  1  0  0  0  0  0  0  0  0
    0.0106   -2.5317   -0.1639 C   0  0  0  1  0  0  0  0  0  0  0  0
    0.4864   -3.0352    1.1726 C   0  0  0  1  0  0  0  0  0  0  0  0
    1.8698   -2.6773    6.6596 C   0  0  0  1  0  0  0  0  0  0  0  0
   -0.3456   -4.1951    1.7039 C   0  0  0  1  0  0  0  0  0  0  0  0
    0.0997   -4.6778    3.0747 C   0  0  0  1  0  0  0  0  0  0  0  0
   -0.6603   -5.8369    3.6215 C   0  0  0  1  0  0  0  0  0  0  0  0
   -6.8084   -0.2979   -7.6404 H   0  0  0  1  0  0  0  0  0  0  0  0
   -5.0158    3.4438   -5.8948 H   0  0  0  1  0  0  0  0  0  0  0  0
   -5.6532    2.8210   -7.3976 H   0  0  0  1  0  0  0  0  0  0  0  0
   -3.9267    2.8598   -7.1299 H   0  0  0  1  0  0  0  0  0  0  0  0
   -9.0874   -2.1669   -7.6805 H   0  0  0  1  0  0  0  0  0  0  0  0
   -7.7572   -2.3216   -8.8027 H   0  0  0  1  0  0  0  0  0  0  0  0
   -8.8029   -0.9231   -8.8740 H   0  0  0  1  0  0  0  0  0  0  0  0
    1.6842    2.1032   -0.0785 H   0  0  0  1  0  0  0  0  0  0  0  0
   -6.9165    1.4705   -5.9755 H   0  0  0  1  0  0  0  0  0  0  0  0
   -5.7587    1.4098   -3.1718 H   0  0  0  1  0  0  0  0  0  0  0  0
   -5.2007   -0.1158   -2.5273 H   0  0  0  1  0  0  0  0  0  0  0  0
   -7.8737    0.2971   -3.6477 H   0  0  0  1  0  0  0  0  0  0  0  0
   -7.0765   -1.2050   -3.2451 H   0  0  0  1  0  0  0  0  0  0  0  0
   -6.8848   -0.0687   -0.8294 H   0  0  0  1  0  0  0  0  0  0  0  0
   -7.5927    1.3716   -1.5213 H   0  0  0  1  0  0  0  0  0  0  0  0
    1.2338    1.3240    3.3338 H   0  0  0  1  0  0  0  0  0  0  0  0
    2.8423    0.7951    2.9011 H   0  0  0  1  0  0  0  0  0  0  0  0
   -5.6312   -0.9908   -5.0955 H   0  0  0  1  0  0  0  0  0  0  0  0
   -5.5303    2.5791   -1.0993 H   0  0  0  1  0  0  0  0  0  0  0  0
   -6.2395    1.9497    0.3687 H   0  0  0  1  0  0  0  0  0  0  0  0
   -3.0346   -2.6040    0.5162 H   0  0  0  1  0  0  0  0  0  0  0  0
   -1.8638   -1.8080    1.5408 H   0  0  0  1  0  0  0  0  0  0  0  0
    2.0412    0.0240    0.7488 H   0  0  0  1  0  0  0  0  0  0  0  0
    2.1263   -1.4886    2.8186 H   0  0  0  1  0  0  0  0  0  0  0  0
    0.4629   -1.0157    3.0705 H   0  0  0  1  0  0  0  0  0  0  0  0
   -0.6456    2.0666    0.2759 H   0  0  0  1  0  0  0  0  0  0  0  0
    0.9985   -0.2539    5.3057 H   0  0  0  1  0  0  0  0  0  0  0  0
    2.6792   -0.6633    5.0572 H   0  0  0  1  0  0  0  0  0  0  0  0
   -0.2911   -0.5938    1.3931 H   0  0  0  1  0  0  0  0  0  0  0  0
    1.8764   -2.9980    4.5729 H   0  0  0  1  0  0  0  0  0  0  0  0
    0.3357   -2.4884    5.2216 H   0  0  0  1  0  0  0  0  0  0  0  0
   -1.4636   -2.0540   -1.4323 H   0  0  0  1  0  0  0  0  0  0  0  0
    0.7062   -2.4840   -0.9356 H   0  0  0  1  0  0  0  0  0  0  0  0
    0.4379   -2.2308    1.8765 H   0  0  0  1  0  0  0  0  0  0  0  0
    1.5005   -3.3613    1.0723 H   0  0  0  1  0  0  0  0  0  0  0  0
    2.9227   -2.5009    6.7327 H   0  0  0  1  0  0  0  0  0  0  0  0
    1.6663   -3.7081    6.8618 H   0  0  0  1  0  0  0  0  0  0  0  0
    1.3557   -2.0654    7.3712 H   0  0  0  1  0  0  0  0  0  0  0  0
   -0.2690   -5.0107    1.0156 H   0  0  0  1  0  0  0  0  0  0  0  0
   -1.3655   -3.8785    1.7705 H   0  0  0  1  0  0  0  0  0  0  0  0
   -0.0022   -3.8631    3.7607 H   0  0  0  1  0  0  0  0  0  0  0  0
    1.1294   -4.9608    3.0066 H   0  0  0  1  0  0  0  0  0  0  0  0
  1 34  1  0  0  0  0
  2  4  1  0  0  0  0
  3  4  1  0  0  0  0
  4  5  1  0  0  0  0
  4 32  1  0  0  0  0
  6 10  1  0  0  0  0
  6 26  1  0  0  0  0
  6 42  1  0  0  0  0
  7  8  1  0  0  0  0
  7  9  2  0  0  0  0
  7 13  1  0  0  0  0
  8 43  1  0  0  0  0
  8 44  1  0  0  0  0
  8 45  1  0  0  0  0
 10 46  1  0  0  0  0
 10 47  1  0  0  0  0
 10 48  1  0  0  0  0
 11 27  1  0  0  0  0
 11 49  1  0  0  0  0
 12 26  2  0  0  0  0
 13 23  1  0  0  0  0
 13 50  1  0  0  0  0
 14 41  1  0  0  0  0
 15 24  1  0  0  0  0
 15 32  4  0  0  0  0
 15 34  4  0  0  0  0
 16 41  2  0  0  0  0
 17 18  1  0  0  0  0
 17 20  1  0  0  0  0
 17 51  1  0  0  0  0
 17 52  1  0  0  0  0
 18 23  1  0  0  0  0
 18 53  1  0  0  0  0
 18 54  1  0  0  0  0
 19 21  4  0  0  0  0
 19 29  1  0  0  0  0
 19 32  4  0  0  0  0
 20 24  1  0  0  0  0
 20 55  1  0  0  0  0
 20 56  1  0  0  0  0
 21 25  1  0  0  0  0
 21 34  4  0  0  0  0
 22 27  1  0  0  0  0
 22 28  1  0  0  0  0
 22 57  1  0  0  0  0
 22 58  1  0  0  0  0
 23 26  1  0  0  0  0
 23 59  1  0  0  0  0
 24 60  1  0  0  0  0
 24 61  1  0  0  0  0
 25 35  1  0  0  0  0
 25 62  1  0  0  0  0
 25 63  1  0  0  0  0
 27 31  1  0  0  0  0
 27 64  1  0  0  0  0
 28 30  1  0  0  0  0
 28 65  1  0  0  0  0
 28 66  1  0  0  0  0
 29 31  2  0  0  0  0
 29 67  1  0  0  0  0
 30 33  1  0  0  0  0
 30 68  1  0  0  0  0
 30 69  1  0  0  0  0
 31 70  1  0  0  0  0
 33 38  1  0  0  0  0
 33 71  1  0  0  0  0
 33 72  1  0  0  0  0
 35 36  2  0  0  0  0
 35 73  1  0  0  0  0
 36 37  1  0  0  0  0
 36 74  1  0  0  0  0
 37 39  1  0  0  0  0
 37 75  1  0  0  0  0
 37 76  1  0  0  0  0
 38 77  1  0  0  0  0
 38 78  1  0  0  0  0
 38 79  1  0  0  0  0
 39 40  1  0  0  0  0
 39 80  1  0  0  0  0
 39 81  1  0  0  0  0
 40 41  1  0  0  0  0
 40 82  1  0  0  0  0
 40 83  1  0  0  0  0
M  END
> <ConfClashScore>
0 

> <ConfOneFourInteractionScore>
-0.985009 

> <ConfScore>
-0.0441156 

> <ConfScorePBest>
0.00592562 

> <ConfTolerance>
1.87035 

$$$$
9548876
  PyMOL2.2          3D                             0

 83 83  0  0  0  0  0  0  0  0999 V2000
   -5.0037   -1.0374   -0.1050 H   0  0  0  1  0  0  0  0  0  0  0  0
   -3.7137    3.5258   -1.0047 H   0  0  0  1  0  0  0  0  0  0  0  0
   -2.1457    3.4634   -0.2367 H   0  0  0  1  0  0  0  0  0  0  0  0
   -3.1770    3.1950   -0.1402 C   0  0  0  1  0  0  0  0  0  0  0  0
   -3.5866    3.6589    0.7327 H   0  0  0  1  0  0  0  0  0  0  0  0
   -8.7871   -1.0872    1.1892 N   0  0  0  1  0  0  0  0  0  0  0  0
  -11.7042    1.1602    3.2588 C   0  0  0  1  0  0  0  0  0  0  0  0
  -12.3340    1.2775    4.6331 C   0  0  0  1  0  0  0  0  0  0  0  0
  -12.3885    1.0178    2.2588 O   0  0  0  1  0  0  0  0  0  0  0  0
   -7.8508   -2.1934    1.0567 C   0  0  0  1  0  0  0  0  0  0  0  0
    2.1915   -0.5608    0.7877 O   0  0  0  1  0  0  0  0  0  0  0  0
   -7.7558   -0.1356    2.9548 O   0  0  0  1  0  0  0  0  0  0  0  0
  -10.3644    1.2234    3.2243 N   0  0  0  1  0  0  0  0  0  0  0  0
   -0.4868   -4.7396   -0.2843 O   0  5  0  1  0  0  0  0  0  0  0  0
   -4.4727    1.0557   -0.2044 N   0  0  0  1  0  0  0  0  0  0  0  0
   -1.5104   -6.7678    0.0941 O   0  0  0  1  0  0  0  0  0  0  0  0
   -7.9878    2.3667    0.4726 C   0  0  0  1  0  0  0  0  0  0  0  0
   -8.8848    2.3522    1.6630 C   0  0  0  1  0  0  0  0  0  0  0  0
   -2.3234    0.7711    0.2856 C   0  0  0  1  0  0  0  0  0  0  0  0
   -6.7106    1.5761    0.6122 C   0  0  0  1  0  0  0  0  0  0  0  0
   -2.9454   -0.4860    0.2812 C   0  0  0  1  0  0  0  0  0  0  0  0
    2.0119    0.7346   -1.2933 C   0  0  0  1  0  0  0  0  0  0  0  0
   -9.6089    1.0382    1.9943 C   0  0  0  1  0  0  0  0  0  0  0  0
   -5.7478    1.6880   -0.5439 C   0  0  0  1  0  0  0  0  0  0  0  0
   -2.2772   -1.8113    0.5610 C   0  0  0  1  0  0  0  0  0  0  0  0
   -8.6390   -0.1336    2.1132 C   0  0  0  1  0  0  0  0  0  0  0  0
    1.5287    0.5162    0.1411 C   0  0  0  1  0  0  0  0  0  0  0  0
    1.2337    1.8087   -2.0340 C   0  0  0  1  0  0  0  0  0  0  0  0
   -0.9063    0.9651    0.5676 C   0  0  0  1  0  0  0  0  0  0  0  0
    1.6690    1.9789   -3.4813 C   0  0  0  1  0  0  0  0  0  0  0  0
    0.0671    0.1986    0.1433 C   0  0  0  1  0  0  0  0  0  0  0  0
   -3.2953    1.7148   -0.0175 C   0  0  0  1  0  0  0  0  0  0  0  0
    0.8709    3.0333   -4.2307 C   0  0  0  1  0  0  0  0  0  0  0  0
   -4.2789   -0.2958   -0.0249 C   0  0  0  1  0  0  0  0  0  0  0  0
   -1.7785   -2.0423    1.9521 C   0  0  0  1  0  0  0  0  0  0  0  0
   -2.1410   -3.0377    2.7219 C   0  0  0  1  0  0  0  0  0  0  0  0
   -2.8559   -4.2945    2.3030 C   0  0  0  1  0  0  0  0  0  0  0  0
    1.3949    3.3030   -5.6318 C   0  0  0  1  0  0  0  0  0  0  0  0
   -2.1014   -5.5606    2.6747 C   0  0  0  1  0  0  0  0  0  0  0  0
   -0.7613   -5.6187    1.9599 C   0  0  0  1  0  0  0  0  0  0  0  0
   -0.9528   -5.7570    0.4887 C   0  0  0  1  0  0  0  0  0  0  0  0
   -9.5528   -1.0401    0.5794 H   0  0  0  1  0  0  0  0  0  0  0  0
  -12.8106    0.3539    4.8876 H   0  0  0  1  0  0  0  0  0  0  0  0
  -13.0602    2.0633    4.6265 H   0  0  0  1  0  0  0  0  0  0  0  0
  -11.5757    1.4980    5.3550 H   0  0  0  1  0  0  0  0  0  0  0  0
   -8.1522   -2.8211    0.2442 H   0  0  0  1  0  0  0  0  0  0  0  0
   -7.8413   -2.7628    1.9625 H   0  0  0  1  0  0  0  0  0  0  0  0
   -6.8704   -1.8096    0.8658 H   0  0  0  1  0  0  0  0  0  0  0  0
    1.6619   -1.3574    0.7076 H   0  0  0  1  0  0  0  0  0  0  0  0
   -9.8777    1.4003    4.0562 H   0  0  0  1  0  0  0  0  0  0  0  0
   -7.7251    3.3841    0.2703 H   0  0  0  1  0  0  0  0  0  0  0  0
   -8.5337    1.9672   -0.3564 H   0  0  0  1  0  0  0  0  0  0  0  0
   -9.6344    3.0998    1.5075 H   0  0  0  1  0  0  0  0  0  0  0  0
   -8.2910    2.6133    2.5139 H   0  0  0  1  0  0  0  0  0  0  0  0
   -6.9721    0.5447    0.7246 H   0  0  0  1  0  0  0  0  0  0  0  0
   -6.2078    1.9152    1.4938 H   0  0  0  1  0  0  0  0  0  0  0  0
    1.9126   -0.1864   -1.8287 H   0  0  0  1  0  0  0  0  0  0  0  0
    3.0424    1.0215   -1.2642 H   0  0  0  1  0  0  0  0  0  0  0  0
  -10.2894    0.8264    1.1963 H   0  0  0  1  0  0  0  0  0  0  0  0
   -6.1662    1.2016   -1.4002 H   0  0  0  1  0  0  0  0  0  0  0  0
   -5.5814    2.7214   -0.7660 H   0  0  0  1  0  0  0  0  0  0  0  0
   -1.4398   -1.8960   -0.0998 H   0  0  0  1  0  0  0  0  0  0  0  0
   -2.9856   -2.5823    0.3404 H   0  0  0  1  0  0  0  0  0  0  0  0
    1.6825    1.4210    0.6911 H   0  0  0  1  0  0  0  0  0  0  0  0
    1.3733    2.7400   -1.5260 H   0  0  0  1  0  0  0  0  0  0  0  0
    0.1964    1.5464   -2.0203 H   0  0  0  1  0  0  0  0  0  0  0  0
   -0.6461    1.7821    1.1561 H   0  0  0  1  0  0  0  0  0  0  0  0
    1.5493    1.0419   -3.9840 H   0  0  0  1  0  0  0  0  0  0  0  0
    2.7009    2.2618   -3.4942 H   0  0  0  1  0  0  0  0  0  0  0  0
   -0.2058   -0.7317   -0.2329 H   0  0  0  1  0  0  0  0  0  0  0  0
    0.9073    3.9460   -3.6733 H   0  0  0  1  0  0  0  0  0  0  0  0
   -0.1434    2.7010   -4.3060 H   0  0  0  1  0  0  0  0  0  0  0  0
   -1.0928   -1.3615    2.3367 H   0  0  0  1  0  0  0  0  0  0  0  0
   -1.9100   -2.9505    3.7321 H   0  0  0  1  0  0  0  0  0  0  0  0
   -2.9857   -4.2747    1.2411 H   0  0  0  1  0  0  0  0  0  0  0  0
   -3.8136   -4.3165    2.7796 H   0  0  0  1  0  0  0  0  0  0  0  0
    2.4465    3.4962   -5.5887 H   0  0  0  1  0  0  0  0  0  0  0  0
    0.8927    4.1538   -6.0425 H   0  0  0  1  0  0  0  0  0  0  0  0
    1.2145    2.4487   -6.2503 H   0  0  0  1  0  0  0  0  0  0  0  0
   -2.6856   -6.4122    2.3947 H   0  0  0  1  0  0  0  0  0  0  0  0
   -1.9360   -5.5729    3.7318 H   0  0  0  1  0  0  0  0  0  0  0  0
   -0.2066   -6.4591    2.3219 H   0  0  0  1  0  0  0  0  0  0  0  0
   -0.2177   -4.7190    2.1599 H   0  0  0  1  0  0  0  0  0  0  0  0
  1 34  1  0  0  0  0
  2  4  1  0  0  0  0
  3  4  1  0  0  0  0
  4  5  1  0  0  0  0
  4 32  1  0  0  0  0
  6 10  1  0  0  0  0
  6 26  1  0  0  0  0
  6 42  1  0  0  0  0
  7  8  1  0  0  0  0
  7  9  2  0  0  0  0
  7 13  1  0  0  0  0
  8 43  1  0  0  0  0
  8 44  1  0  0  0  0
  8 45  1  0  0  0  0
 10 46  1  0  0  0  0
 10 47  1  0  0  0  0
 10 48  1  0  0  0  0
 11 27  1  0  0  0  0
 11 49  1  0  0  0  0
 12 26  2  0  0  0  0
 13 23  1  0  0  0  0
 13 50  1  0  0  0  0
 14 41  1  0  0  0  0
 15 24  1  0  0  0  0
 15 32  4  0  0  0  0
 15 34  4  0  0  0  0
 16 41  2  0  0  0  0
 17 18  1  0  0  0  0
 17 20  1  0  0  0  0
 17 51  1  0  0  0  0
 17 52  1  0  0  0  0
 18 23  1  0  0  0  0
 18 53  1  0  0  0  0
 18 54  1  0  0  0  0
 19 21  4  0  0  0  0
 19 29  1  0  0  0  0
 19 32  4  0  0  0  0
 20 24  1  0  0  0  0
 20 55  1  0  0  0  0
 20 56  1  0  0  0  0
 21 25  1  0  0  0  0
 21 34  4  0  0  0  0
 22 27  1  0  0  0  0
 22 28  1  0  0  0  0
 22 57  1  0  0  0  0
 22 58  1  0  0  0  0
 23 26  1  0  0  0  0
 23 59  1  0  0  0  0
 24 60  1  0  0  0  0
 24 61  1  0  0  0  0
 25 35  1  0  0  0  0
 25 62  1  0  0  0  0
 25 63  1  0  0  0  0
 27 31  1  0  0  0  0
 27 64  1  0  0  0  0
 28 30  1  0  0  0  0
 28 65  1  0  0  0  0
 28 66  1  0  0  0  0
 29 31  2  0  0  0  0
 29 67  1  0  0  0  0
 30 33  1  0  0  0  0
 30 68  1  0  0  0  0
 30 69  1  0  0  0  0
 31 70  1  0  0  0  0
 33 38  1  0  0  0  0
 33 71  1  0  0  0  0
 33 72  1  0  0  0  0
 35 36  2  0  0  0  0
 35 73  1  0  0  0  0
 36 37  1  0  0  0  0
 36 74  1  0  0  0  0
 37 39  1  0  0  0  0
 37 75  1  0  0  0  0
 37 76  1  0  0  0  0
 38 77  1  0  0  0  0
 38 78  1  0  0  0  0
 38 79  1  0  0  0  0
 39 40  1  0  0  0  0
 39 80  1  0  0  0  0
 39 81  1  0  0  0  0
 40 41  1  0  0  0  0
 40 82  1  0  0  0  0
 40 83  1  0  0  0  0
M  END
> <ConfClashScore>
0 

> <ConfOneFourInteractionScore>
-0.99303 

> <ConfScore>
-0.0430771 

> <ConfScorePBest>
0.00589714 

> <ConfTolerance>
1.9065 

$$$$
9548876
  PyMOL2.2          3D                             0

 83 83  0  0  0  0  0  0  0  0999 V2000
   -5.0340   -1.0305   -0.0871 H   0  0  0  1  0  0  0  0  0  0  0  0
   -3.3060    3.5086   -1.1262 H   0  0  0  1  0  0  0  0  0  0  0  0
   -2.1931    3.4739    0.2203 H   0  0  0  1  0  0  0  0  0  0  0  0
   -3.1644    3.1789   -0.1181 C   0  0  0  1  0  0  0  0  0  0  0  0
   -3.9105    3.6200    0.5093 H   0  0  0  1  0  0  0  0  0  0  0  0
  -10.5317    3.6827   -2.7602 N   0  0  0  1  0  0  0  0  0  0  0  0
  -11.0261    1.2791   -5.7890 C   0  0  0  1  0  0  0  0  0  0  0  0
  -11.3067    0.6445   -7.1373 C   0  0  0  1  0  0  0  0  0  0  0  0
  -11.9393    1.5080   -4.9971 O   0  0  0  1  0  0  0  0  0  0  0  0
  -10.9982    5.0041   -2.3676 C   0  0  0  1  0  0  0  0  0  0  0  0
    1.7424    1.3599    1.2071 O   0  0  0  1  0  0  0  0  0  0  0  0
   -9.4815    4.3898   -4.6090 O   0  0  0  1  0  0  0  0  0  0  0  0
   -9.7538    1.5825   -5.4869 N   0  0  0  1  0  0  0  0  0  0  0  0
    3.7431   -6.1483    1.6719 O   0  5  0  1  0  0  0  0  0  0  0  0
   -4.4693    1.0511   -0.2298 N   0  0  0  1  0  0  0  0  0  0  0  0
    2.2919   -7.7611    0.9699 O   0  0  0  1  0  0  0  0  0  0  0  0
   -7.4929    1.9704   -2.4069 C   0  0  0  1  0  0  0  0  0  0  0  0
   -7.8634    1.7851   -3.8575 C   0  0  0  1  0  0  0  0  0  0  0  0
   -2.3235    0.7413    0.2598 C   0  0  0  1  0  0  0  0  0  0  0  0
   -6.1263    1.4650   -2.0160 C   0  0  0  1  0  0  0  0  0  0  0  0
   -2.9658   -0.5052    0.2823 C   0  0  0  1  0  0  0  0  0  0  0  0
    2.1160    2.0903   -1.0297 C   0  0  0  1  0  0  0  0  0  0  0  0
   -9.3521    2.0522   -4.1462 C   0  0  0  1  0  0  0  0  0  0  0  0
   -5.7350    1.6973   -0.5784 C   0  0  0  1  0  0  0  0  0  0  0  0
   -2.2679   -1.8080    0.5939 C   0  0  0  1  0  0  0  0  0  0  0  0
   -9.8217    3.4780   -3.8733 C   0  0  0  1  0  0  0  0  0  0  0  0
    1.2388    2.2437    0.2173 C   0  0  0  1  0  0  0  0  0  0  0  0
    3.5902    2.3329   -0.8204 C   0  0  0  1  0  0  0  0  0  0  0  0
   -0.9267    1.0849    0.5080 C   0  0  0  1  0  0  0  0  0  0  0  0
    4.3583    2.5206   -2.1146 C   0  0  0  1  0  0  0  0  0  0  0  0
   -0.1915    1.9771   -0.1205 C   0  0  0  1  0  0  0  0  0  0  0  0
   -3.2808    1.6946   -0.0594 C   0  0  0  1  0  0  0  0  0  0  0  0
    5.8384    2.6351   -1.8462 C   0  0  0  1  0  0  0  0  0  0  0  0
   -4.2970   -0.2995   -0.0238 C   0  0  0  1  0  0  0  0  0  0  0  0
   -1.6364   -2.4142   -0.6162 C   0  0  0  1  0  0  0  0  0  0  0  0
   -0.8129   -3.4310   -0.5629 C   0  0  0  1  0  0  0  0  0  0  0  0
   -0.3040   -4.1221    0.6737 C   0  0  0  1  0  0  0  0  0  0  0  0
    6.6603    2.8878   -3.0995 C   0  0  0  1  0  0  0  0  0  0  0  0
    0.7518   -5.1785    0.3750 C   0  0  0  1  0  0  0  0  0  0  0  0
    1.4433   -5.6254    1.6527 C   0  0  0  1  0  0  0  0  0  0  0  0
    2.5033   -6.6456    1.4165 C   0  0  0  1  0  0  0  0  0  0  0  0
  -10.7458    2.9163   -2.1882 H   0  0  0  1  0  0  0  0  0  0  0  0
  -11.1970   -0.4172   -7.0621 H   0  0  0  1  0  0  0  0  0  0  0  0
  -10.6154    1.0239   -7.8606 H   0  0  0  1  0  0  0  0  0  0  0  0
  -12.3056    0.8790   -7.4406 H   0  0  0  1  0  0  0  0  0  0  0  0
  -10.2635    5.4722   -1.7463 H   0  0  0  1  0  0  0  0  0  0  0  0
  -11.9163    4.9115   -1.8259 H   0  0  0  1  0  0  0  0  0  0  0  0
  -11.1578    5.6000   -3.2418 H   0  0  0  1  0  0  0  0  0  0  0  0
    1.2436    0.5399    1.1882 H   0  0  0  1  0  0  0  0  0  0  0  0
   -9.0678    1.4891   -6.1805 H   0  0  0  1  0  0  0  0  0  0  0  0
   -8.2177    1.4537   -1.8130 H   0  0  0  1  0  0  0  0  0  0  0  0
   -7.5323    3.0170   -2.1878 H   0  0  0  1  0  0  0  0  0  0  0  0
   -7.6387    0.7776   -4.1390 H   0  0  0  1  0  0  0  0  0  0  0  0
   -7.2774    2.4597   -4.4461 H   0  0  0  1  0  0  0  0  0  0  0  0
   -5.4044    1.9529   -2.6371 H   0  0  0  1  0  0  0  0  0  0  0  0
   -6.1002    0.4109   -2.1984 H   0  0  0  1  0  0  0  0  0  0  0  0
    1.7686    2.7860   -1.7646 H   0  0  0  1  0  0  0  0  0  0  0  0
    1.9952    1.0926   -1.3969 H   0  0  0  1  0  0  0  0  0  0  0  0
   -9.8867    1.4403   -3.4499 H   0  0  0  1  0  0  0  0  0  0  0  0
   -5.6386    2.7504   -0.4152 H   0  0  0  1  0  0  0  0  0  0  0  0
   -6.5048    1.3069    0.0539 H   0  0  0  1  0  0  0  0  0  0  0  0
   -2.9849   -2.4967    0.9897 H   0  0  0  1  0  0  0  0  0  0  0  0
   -1.5074   -1.6252    1.3241 H   0  0  0  1  0  0  0  0  0  0  0  0
    1.3211    3.2537    0.5609 H   0  0  0  1  0  0  0  0  0  0  0  0
    4.0018    1.4933   -0.3003 H   0  0  0  1  0  0  0  0  0  0  0  0
    3.7078    3.2143   -0.2252 H   0  0  0  1  0  0  0  0  0  0  0  0
   -0.4559    0.5616    1.2736 H   0  0  0  1  0  0  0  0  0  0  0  0
    4.0193    3.4133   -2.5975 H   0  0  0  1  0  0  0  0  0  0  0  0
    4.1814    1.6801   -2.7526 H   0  0  0  1  0  0  0  0  0  0  0  0
   -0.6278    2.5235   -0.8903 H   0  0  0  1  0  0  0  0  0  0  0  0
    6.1736    1.7226   -1.3989 H   0  0  0  1  0  0  0  0  0  0  0  0
    5.9983    3.4458   -1.1664 H   0  0  0  1  0  0  0  0  0  0  0  0
   -1.8617   -2.0088   -1.5471 H   0  0  0  1  0  0  0  0  0  0  0  0
   -0.4738   -3.8012   -1.4737 H   0  0  0  1  0  0  0  0  0  0  0  0
   -1.1294   -4.5946    1.1639 H   0  0  0  1  0  0  0  0  0  0  0  0
    0.1239   -3.3871    1.3230 H   0  0  0  1  0  0  0  0  0  0  0  0
    6.4436    3.8649   -3.4778 H   0  0  0  1  0  0  0  0  0  0  0  0
    6.4144    2.1561   -3.8406 H   0  0  0  1  0  0  0  0  0  0  0  0
    7.7016    2.8202   -2.8626 H   0  0  0  1  0  0  0  0  0  0  0  0
    1.4799   -4.7679   -0.2929 H   0  0  0  1  0  0  0  0  0  0  0  0
    0.2825   -6.0236   -0.0839 H   0  0  0  1  0  0  0  0  0  0  0  0
    0.7089   -6.0430    2.3093 H   0  0  0  1  0  0  0  0  0  0  0  0
    1.8907   -4.7703    2.1148 H   0  0  0  1  0  0  0  0  0  0  0  0
  1 34  1  0  0  0  0
  2  4  1  0  0  0  0
  3  4  1  0  0  0  0
  4  5  1  0  0  0  0
  4 32  1  0  0  0  0
  6 10  1  0  0  0  0
  6 26  1  0  0  0  0
  6 42  1  0  0  0  0
  7  8  1  0  0  0  0
  7  9  2  0  0  0  0
  7 13  1  0  0  0  0
  8 43  1  0  0  0  0
  8 44  1  0  0  0  0
  8 45  1  0  0  0  0
 10 46  1  0  0  0  0
 10 47  1  0  0  0  0
 10 48  1  0  0  0  0
 11 27  1  0  0  0  0
 11 49  1  0  0  0  0
 12 26  2  0  0  0  0
 13 23  1  0  0  0  0
 13 50  1  0  0  0  0
 14 41  1  0  0  0  0
 15 24  1  0  0  0  0
 15 32  4  0  0  0  0
 15 34  4  0  0  0  0
 16 41  2  0  0  0  0
 17 18  1  0  0  0  0
 17 20  1  0  0  0  0
 17 51  1  0  0  0  0
 17 52  1  0  0  0  0
 18 23  1  0  0  0  0
 18 53  1  0  0  0  0
 18 54  1  0  0  0  0
 19 21  4  0  0  0  0
 19 29  1  0  0  0  0
 19 32  4  0  0  0  0
 20 24  1  0  0  0  0
 20 55  1  0  0  0  0
 20 56  1  0  0  0  0
 21 25  1  0  0  0  0
 21 34  4  0  0  0  0
 22 27  1  0  0  0  0
 22 28  1  0  0  0  0
 22 57  1  0  0  0  0
 22 58  1  0  0  0  0
 23 26  1  0  0  0  0
 23 59  1  0  0  0  0
 24 60  1  0  0  0  0
 24 61  1  0  0  0  0
 25 35  1  0  0  0  0
 25 62  1  0  0  0  0
 25 63  1  0  0  0  0
 27 31  1  0  0  0  0
 27 64  1  0  0  0  0
 28 30  1  0  0  0  0
 28 65  1  0  0  0  0
 28 66  1  0  0  0  0
 29 31  2  0  0  0  0
 29 67  1  0  0  0  0
 30 33  1  0  0  0  0
 30 68  1  0  0  0  0
 30 69  1  0  0  0  0
 31 70  1  0  0  0  0
 33 38  1  0  0  0  0
 33 71  1  0  0  0  0
 33 72  1  0  0  0  0
 35 36  2  0  0  0  0
 35 73  1  0  0  0  0
 36 37  1  0  0  0  0
 36 74  1  0  0  0  0
 37 39  1  0  0  0  0
 37 75  1  0  0  0  0
 37 76  1  0  0  0  0
 38 77  1  0  0  0  0
 38 78  1  0  0  0  0
 38 79  1  0  0  0  0
 39 40  1  0  0  0  0
 39 80  1  0  0  0  0
 39 81  1  0  0  0  0
 40 41  1  0  0  0  0
 40 82  1  0  0  0  0
 40 83  1  0  0  0  0
M  END
> <ConfClashScore>
0 

> <ConfOneFourInteractionScore>
-0.9893 

> <ConfScore>
-0.0429047 

> <ConfScorePBest>
0.00586866 

> <ConfTolerance>
1.50295 

$$$$
9548876
  PyMOL2.2          3D                             0

 83 83  0  0  0  0  0  0  0  0999 V2000
   -5.0182   -1.0218   -0.0510 H   0  0  0  1  0  0  0  0  0  0  0  0
   -4.1192    3.6274    0.1678 H   0  0  0  1  0  0  0  0  0  0  0  0
   -2.9966    3.4483   -1.1589 H   0  0  0  1  0  0  0  0  0  0  0  0
   -3.1919    3.1904   -0.1390 C   0  0  0  1  0  0  0  0  0  0  0  0
   -2.4016    3.5599    0.4805 H   0  0  0  1  0  0  0  0  0  0  0  0
   -4.5898    5.6904    2.7072 N   0  0  0  1  0  0  0  0  0  0  0  0
   -6.8884    5.2162    5.9772 C   0  0  0  1  0  0  0  0  0  0  0  0
   -7.9281    5.2553    7.0589 C   0  0  0  1  0  0  0  0  0  0  0  0
   -5.8185    5.7918    6.0413 O   0  0  0  1  0  0  0  0  0  0  0  0
   -4.0344    6.9039    2.1268 C   0  0  0  1  0  0  0  0  0  0  0  0
    2.3763   -0.2483    0.8353 O   0  0  0  1  0  0  0  0  0  0  0  0
   -6.6600    6.5150    2.9438 O   0  0  0  1  0  0  0  0  0  0  0  0
   -7.1966    4.4955    4.8979 N   0  0  0  1  0  0  0  0  0  0  0  0
    3.3646   -7.1910    1.4351 O   0  5  0  1  0  0  0  0  0  0  0  0
   -4.4642    1.0648   -0.1596 N   0  0  0  1  0  0  0  0  0  0  0  0
    2.7218   -6.1460    3.3506 O   0  0  0  1  0  0  0  0  0  0  0  0
   -5.9454    2.9590    1.5958 C   0  0  0  1  0  0  0  0  0  0  0  0
   -6.8785    3.2633    2.7415 C   0  0  0  1  0  0  0  0  0  0  0  0
   -2.3040    0.7513    0.2591 C   0  0  0  1  0  0  0  0  0  0  0  0
   -6.5565    2.0886    0.5513 C   0  0  0  1  0  0  0  0  0  0  0  0
   -2.9416   -0.4979    0.2702 C   0  0  0  1  0  0  0  0  0  0  0  0
    1.6085    1.9324    1.5599 C   0  0  0  1  0  0  0  0  0  0  0  0
   -6.3088    4.2914    3.7362 C   0  0  0  1  0  0  0  0  0  0  0  0
   -5.6990    1.6989   -0.6225 C   0  0  0  1  0  0  0  0  0  0  0  0
   -2.2796   -1.8366    0.5238 C   0  0  0  1  0  0  0  0  0  0  0  0
   -5.8583    5.6122    3.1193 C   0  0  0  1  0  0  0  0  0  0  0  0
    1.3407    0.4224    1.5509 C   0  0  0  1  0  0  0  0  0  0  0  0
    1.7385    2.4608    0.1528 C   0  0  0  1  0  0  0  0  0  0  0  0
   -0.9028    1.0039    0.5807 C   0  0  0  1  0  0  0  0  0  0  0  0
    1.9630    3.9639    0.0915 C   0  0  0  1  0  0  0  0  0  0  0  0
    0.0097    0.1332    0.9327 C   0  0  0  1  0  0  0  0  0  0  0  0
   -3.2732    1.7084   -0.0086 C   0  0  0  1  0  0  0  0  0  0  0  0
    2.2361    4.4649   -1.2856 C   0  0  0  1  0  0  0  0  0  0  0  0
   -4.2819   -0.2897    0.0084 C   0  0  0  1  0  0  0  0  0  0  0  0
   -1.8158   -1.9790    1.9364 C   0  0  0  1  0  0  0  0  0  0  0  0
   -0.7859   -2.7129    2.2843 C   0  0  0  1  0  0  0  0  0  0  0  0
   -0.0934   -3.7576    1.4505 C   0  0  0  1  0  0  0  0  0  0  0  0
    2.3769    5.9514   -1.4730 C   0  0  0  1  0  0  0  0  0  0  0  0
    1.2905   -4.1684    1.9359 C   0  0  0  1  0  0  0  0  0  0  0  0
    1.8275   -5.4108    1.2441 C   0  0  0  1  0  0  0  0  0  0  0  0
    2.6640   -6.2607    2.1374 C   0  0  0  1  0  0  0  0  0  0  0  0
   -4.0134    4.9033    2.7990 H   0  0  0  1  0  0  0  0  0  0  0  0
   -8.2320    4.2577    7.2985 H   0  0  0  1  0  0  0  0  0  0  0  0
   -8.7751    5.8140    6.7192 H   0  0  0  1  0  0  0  0  0  0  0  0
   -7.5186    5.7221    7.9303 H   0  0  0  1  0  0  0  0  0  0  0  0
   -4.6734    7.7322    2.3516 H   0  0  0  1  0  0  0  0  0  0  0  0
   -3.9594    6.7894    1.0656 H   0  0  0  1  0  0  0  0  0  0  0  0
   -3.0622    7.0823    2.5364 H   0  0  0  1  0  0  0  0  0  0  0  0
    3.2248   -0.0495    1.2381 H   0  0  0  1  0  0  0  0  0  0  0  0
   -8.0788    4.0694    4.8744 H   0  0  0  1  0  0  0  0  0  0  0  0
   -5.0799    2.4650    1.9852 H   0  0  0  1  0  0  0  0  0  0  0  0
   -5.6549    3.8826    1.1404 H   0  0  0  1  0  0  0  0  0  0  0  0
   -7.0755    2.3536    3.2694 H   0  0  0  1  0  0  0  0  0  0  0  0
   -7.7927    3.6491    2.3412 H   0  0  0  1  0  0  0  0  0  0  0  0
   -7.4112    2.6040    0.1656 H   0  0  0  1  0  0  0  0  0  0  0  0
   -6.8706    1.1855    1.0314 H   0  0  0  1  0  0  0  0  0  0  0  0
    2.5167    2.1245    2.0921 H   0  0  0  1  0  0  0  0  0  0  0  0
    0.7965    2.4299    2.0478 H   0  0  0  1  0  0  0  0  0  0  0  0
   -5.4184    3.8423    4.1241 H   0  0  0  1  0  0  0  0  0  0  0  0
   -6.2382    1.0122   -1.2410 H   0  0  0  1  0  0  0  0  0  0  0  0
   -5.4559    2.5740   -1.1882 H   0  0  0  1  0  0  0  0  0  0  0  0
   -1.4356   -1.9321   -0.1270 H   0  0  0  1  0  0  0  0  0  0  0  0
   -2.9834   -2.6143    0.3124 H   0  0  0  1  0  0  0  0  0  0  0  0
    1.3235    0.0796    2.5644 H   0  0  0  1  0  0  0  0  0  0  0  0
    0.8401    2.2300   -0.3806 H   0  0  0  1  0  0  0  0  0  0  0  0
    2.5677    1.9745   -0.3170 H   0  0  0  1  0  0  0  0  0  0  0  0
   -0.5917    1.9947    0.5233 H   0  0  0  1  0  0  0  0  0  0  0  0
    2.7991    4.2076    0.7132 H   0  0  0  1  0  0  0  0  0  0  0  0
    1.0870    4.4532    0.4630 H   0  0  0  1  0  0  0  0  0  0  0  0
   -0.2154   -0.8681    0.7642 H   0  0  0  1  0  0  0  0  0  0  0  0
    1.4306    4.1388   -1.9099 H   0  0  0  1  0  0  0  0  0  0  0  0
    3.1486    4.0133   -1.6149 H   0  0  0  1  0  0  0  0  0  0  0  0
   -2.3350   -1.4712    2.6807 H   0  0  0  1  0  0  0  0  0  0  0  0
   -0.4065   -2.5561    3.2398 H   0  0  0  1  0  0  0  0  0  0  0  0
    0.0058   -3.3741    0.4565 H   0  0  0  1  0  0  0  0  0  0  0  0
   -0.7110   -4.6312    1.4363 H   0  0  0  1  0  0  0  0  0  0  0  0
    3.2780    6.2868   -1.0035 H   0  0  0  1  0  0  0  0  0  0  0  0
    1.5385    6.4474   -1.0304 H   0  0  0  1  0  0  0  0  0  0  0  0
    2.4143    6.1769   -2.5183 H   0  0  0  1  0  0  0  0  0  0  0  0
    1.2379   -4.3614    2.9871 H   0  0  0  1  0  0  0  0  0  0  0  0
    1.9675   -3.3598    1.7547 H   0  0  0  1  0  0  0  0  0  0  0  0
    2.4229   -5.1052    0.4092 H   0  0  0  1  0  0  0  0  0  0  0  0
    0.9991   -5.9928    0.8980 H   0  0  0  1  0  0  0  0  0  0  0  0
  1 34  1  0  0  0  0
  2  4  1  0  0  0  0
  3  4  1  0  0  0  0
  4  5  1  0  0  0  0
  4 32  1  0  0  0  0
  6 10  1  0  0  0  0
  6 26  1  0  0  0  0
  6 42  1  0  0  0  0
  7  8  1  0  0  0  0
  7  9  2  0  0  0  0
  7 13  1  0  0  0  0
  8 43  1  0  0  0  0
  8 44  1  0  0  0  0
  8 45  1  0  0  0  0
 10 46  1  0  0  0  0
 10 47  1  0  0  0  0
 10 48  1  0  0  0  0
 11 27  1  0  0  0  0
 11 49  1  0  0  0  0
 12 26  2  0  0  0  0
 13 23  1  0  0  0  0
 13 50  1  0  0  0  0
 14 41  1  0  0  0  0
 15 24  1  0  0  0  0
 15 32  4  0  0  0  0
 15 34  4  0  0  0  0
 16 41  2  0  0  0  0
 17 18  1  0  0  0  0
 17 20  1  0  0  0  0
 17 51  1  0  0  0  0
 17 52  1  0  0  0  0
 18 23  1  0  0  0  0
 18 53  1  0  0  0  0
 18 54  1  0  0  0  0
 19 21  4  0  0  0  0
 19 29  1  0  0  0  0
 19 32  4  0  0  0  0
 20 24  1  0  0  0  0
 20 55  1  0  0  0  0
 20 56  1  0  0  0  0
 21 25  1  0  0  0  0
 21 34  4  0  0  0  0
 22 27  1  0  0  0  0
 22 28  1  0  0  0  0
 22 57  1  0  0  0  0
 22 58  1  0  0  0  0
 23 26  1  0  0  0  0
 23 59  1  0  0  0  0
 24 60  1  0  0  0  0
 24 61  1  0  0  0  0
 25 35  1  0  0  0  0
 25 62  1  0  0  0  0
 25 63  1  0  0  0  0
 27 31  1  0  0  0  0
 27 64  1  0  0  0  0
 28 30  1  0  0  0  0
 28 65  1  0  0  0  0
 28 66  1  0  0  0  0
 29 31  2  0  0  0  0
 29 67  1  0  0  0  0
 30 33  1  0  0  0  0
 30 68  1  0  0  0  0
 30 69  1  0  0  0  0
 31 70  1  0  0  0  0
 33 38  1  0  0  0  0
 33 71  1  0  0  0  0
 33 72  1  0  0  0  0
 35 36  2  0  0  0  0
 35 73  1  0  0  0  0
 36 37  1  0  0  0  0
 36 74  1  0  0  0  0
 37 39  1  0  0  0  0
 37 75  1  0  0  0  0
 37 76  1  0  0  0  0
 38 77  1  0  0  0  0
 38 78  1  0  0  0  0
 38 79  1  0  0  0  0
 39 40  1  0  0  0  0
 39 80  1  0  0  0  0
 39 81  1  0  0  0  0
 40 41  1  0  0  0  0
 40 82  1  0  0  0  0
 40 83  1  0  0  0  0
M  END
> <ConfClashScore>
0 

> <ConfOneFourInteractionScore>
-0.988367 

> <ConfScore>
-0.0427423 

> <ConfScorePBest>
0.00584018 

> <ConfTolerance>
1.91216 

$$$$
9548876
  PyMOL2.2          3D                             0

 83 83  0  0  0  0  0  0  0  0999 V2000
   -5.0185   -1.0375   -0.0541 H   0  0  0  1  0  0  0  0  0  0  0  0
   -3.3045    3.6339    0.8315 H   0  0  0  1  0  0  0  0  0  0  0  0
   -3.9227    3.5525   -0.8006 H   0  0  0  1  0  0  0  0  0  0  0  0
   -3.1726    3.1860   -0.1313 C   0  0  0  1  0  0  0  0  0  0  0  0
   -2.2034    3.4347   -0.5104 H   0  0  0  1  0  0  0  0  0  0  0  0
   -6.7183    2.4993   -7.4072 N   0  0  0  1  0  0  0  0  0  0  0  0
   -5.4049    4.7597   -5.5939 C   0  0  0  1  0  0  0  0  0  0  0  0
   -5.7141    6.2399   -5.7065 C   0  0  0  1  0  0  0  0  0  0  0  0
   -4.3063    4.3105   -5.9177 O   0  0  0  1  0  0  0  0  0  0  0  0
   -6.8575    1.9153   -8.7329 C   0  0  0  1  0  0  0  0  0  0  0  0
    1.4929    2.9569   -0.5365 O   0  0  0  1  0  0  0  0  0  0  0  0
   -5.6128    0.7545   -6.5017 O   0  0  0  1  0  0  0  0  0  0  0  0
   -6.3995    3.9903   -5.1237 N   0  0  0  1  0  0  0  0  0  0  0  0
   -4.0022   -3.5966    6.3262 O   0  5  0  1  0  0  0  0  0  0  0  0
   -4.4807    1.0534   -0.1612 N   0  0  0  1  0  0  0  0  0  0  0  0
   -3.0394   -1.6169    6.9560 O   0  0  0  1  0  0  0  0  0  0  0  0
   -7.1343    2.2338   -2.6826 C   0  0  0  1  0  0  0  0  0  0  0  0
   -7.3472    1.9757   -4.1536 C   0  0  0  1  0  0  0  0  0  0  0  0
   -2.3171    0.7557    0.2520 C   0  0  0  1  0  0  0  0  0  0  0  0
   -5.9483    1.4968   -2.1115 C   0  0  0  1  0  0  0  0  0  0  0  0
   -2.9453   -0.4982    0.2629 C   0  0  0  1  0  0  0  0  0  0  0  0
    1.2311    3.8659    1.6746 C   0  0  0  1  0  0  0  0  0  0  0  0
   -6.2303    2.5485   -5.0407 C   0  0  0  1  0  0  0  0  0  0  0  0
   -5.7213    1.6787   -0.6205 C   0  0  0  1  0  0  0  0  0  0  0  0
   -2.2745   -1.8284    0.5124 C   0  0  0  1  0  0  0  0  0  0  0  0
   -6.1785    1.8291   -6.3852 C   0  0  0  1  0  0  0  0  0  0  0  0
    1.0056    2.6607    0.7574 C   0  0  0  1  0  0  0  0  0  0  0  0
    0.7845    5.1475    0.9979 C   0  0  0  1  0  0  0  0  0  0  0  0
   -0.9314    1.0706    0.5777 C   0  0  0  1  0  0  0  0  0  0  0  0
    0.7014    6.3680    1.8986 C   0  0  0  1  0  0  0  0  0  0  0  0
   -0.4392    2.2744    0.7308 C   0  0  0  1  0  0  0  0  0  0  0  0
   -3.2942    1.7058   -0.0122 C   0  0  0  1  0  0  0  0  0  0  0  0
    0.3169    7.6378    1.1584 C   0  0  0  1  0  0  0  0  0  0  0  0
   -4.2876   -0.2999    0.0045 C   0  0  0  1  0  0  0  0  0  0  0  0
   -3.1163   -2.9158    1.1008 C   0  0  0  1  0  0  0  0  0  0  0  0
   -2.7561   -3.7895    2.0073 C   0  0  0  1  0  0  0  0  0  0  0  0
   -1.5161   -3.6425    2.8481 C   0  0  0  1  0  0  0  0  0  0  0  0
    0.4570    8.8097    2.1130 C   0  0  0  1  0  0  0  0  0  0  0  0
   -1.8104   -3.5931    4.3416 C   0  0  0  1  0  0  0  0  0  0  0  0
   -2.6845   -2.4168    4.7450 C   0  0  0  1  0  0  0  0  0  0  0  0
   -3.2485   -2.4830    6.1226 C   0  0  0  1  0  0  0  0  0  0  0  0
   -7.0314    3.4160   -7.2590 H   0  0  0  1  0  0  0  0  0  0  0  0
   -5.1036    6.7857   -5.0180 H   0  0  0  1  0  0  0  0  0  0  0  0
   -6.7460    6.4069   -5.4778 H   0  0  0  1  0  0  0  0  0  0  0  0
   -5.5111    6.5716   -6.7034 H   0  0  0  1  0  0  0  0  0  0  0  0
   -5.9970    2.1561   -9.3215 H   0  0  0  1  0  0  0  0  0  0  0  0
   -7.7336    2.3082   -9.2052 H   0  0  0  1  0  0  0  0  0  0  0  0
   -6.9444    0.8523   -8.6468 H   0  0  0  1  0  0  0  0  0  0  0  0
    2.2926    2.4519   -0.7011 H   0  0  0  1  0  0  0  0  0  0  0  0
   -7.2413    4.4013   -4.8358 H   0  0  0  1  0  0  0  0  0  0  0  0
   -8.0119    1.9259   -2.1535 H   0  0  0  1  0  0  0  0  0  0  0  0
   -6.9817    3.2834   -2.5409 H   0  0  0  1  0  0  0  0  0  0  0  0
   -8.2749    2.4219   -4.4455 H   0  0  0  1  0  0  0  0  0  0  0  0
   -7.3951    0.9181   -4.3089 H   0  0  0  1  0  0  0  0  0  0  0  0
   -5.0718    1.8370   -2.6223 H   0  0  0  1  0  0  0  0  0  0  0  0
   -6.0880    0.4526   -2.2986 H   0  0  0  1  0  0  0  0  0  0  0  0
    2.2725    3.9378    1.9098 H   0  0  0  1  0  0  0  0  0  0  0  0
    0.6700    3.7309    2.5756 H   0  0  0  1  0  0  0  0  0  0  0  0
   -5.3038    2.3525   -4.5426 H   0  0  0  1  0  0  0  0  0  0  0  0
   -5.6773    2.7260   -0.4056 H   0  0  0  1  0  0  0  0  0  0  0  0
   -6.5422    1.2400   -0.0926 H   0  0  0  1  0  0  0  0  0  0  0  0
   -1.4567   -1.6565    1.1807 H   0  0  0  1  0  0  0  0  0  0  0  0
   -1.9008   -2.1820   -0.4258 H   0  0  0  1  0  0  0  0  0  0  0  0
    1.5574    1.8377    1.1611 H   0  0  0  1  0  0  0  0  0  0  0  0
   -0.1864    4.9790    0.5808 H   0  0  0  1  0  0  0  0  0  0  0  0
    1.4779    5.3643    0.2123 H   0  0  0  1  0  0  0  0  0  0  0  0
   -0.2778    0.2708    0.6989 H   0  0  0  1  0  0  0  0  0  0  0  0
    1.6572    6.5180    2.3558 H   0  0  0  1  0  0  0  0  0  0  0  0
   -0.0313    6.1816    2.6557 H   0  0  0  1  0  0  0  0  0  0  0  0
   -1.1274    3.0455    0.8464 H   0  0  0  1  0  0  0  0  0  0  0  0
   -0.6957    7.5663    0.8203 H   0  0  0  1  0  0  0  0  0  0  0  0
    0.9650    7.7766    0.3184 H   0  0  0  1  0  0  0  0  0  0  0  0
   -4.0936   -2.9856    0.7522 H   0  0  0  1  0  0  0  0  0  0  0  0
   -3.3563   -4.6261    2.1536 H   0  0  0  1  0  0  0  0  0  0  0  0
   -1.0205   -2.7363    2.5685 H   0  0  0  1  0  0  0  0  0  0  0  0
   -0.8730   -4.4756    2.6550 H   0  0  0  1  0  0  0  0  0  0  0  0
   -0.1794    8.6587    2.9598 H   0  0  0  1  0  0  0  0  0  0  0  0
    0.1760    9.7127    1.6125 H   0  0  0  1  0  0  0  0  0  0  0  0
    1.4733    8.8838    2.4397 H   0  0  0  1  0  0  0  0  0  0  0  0
   -0.8817   -3.5219    4.8682 H   0  0  0  1  0  0  0  0  0  0  0  0
   -2.3099   -4.4978    4.6191 H   0  0  0  1  0  0  0  0  0  0  0  0
   -3.5014   -2.3611    4.0562 H   0  0  0  1  0  0  0  0  0  0  0  0
   -2.0947   -1.5270    4.6722 H   0  0  0  1  0  0  0  0  0  0  0  0
  1 34  1  0  0  0  0
  2  4  1  0  0  0  0
  3  4  1  0  0  0  0
  4  5  1  0  0  0  0
  4 32  1  0  0  0  0
  6 10  1  0  0  0  0
  6 26  1  0  0  0  0
  6 42  1  0  0  0  0
  7  8  1  0  0  0  0
  7  9  2  0  0  0  0
  7 13  1  0  0  0  0
  8 43  1  0  0  0  0
  8 44  1  0  0  0  0
  8 45  1  0  0  0  0
 10 46  1  0  0  0  0
 10 47  1  0  0  0  0
 10 48  1  0  0  0  0
 11 27  1  0  0  0  0
 11 49  1  0  0  0  0
 12 26  2  0  0  0  0
 13 23  1  0  0  0  0
 13 50  1  0  0  0  0
 14 41  1  0  0  0  0
 15 24  1  0  0  0  0
 15 32  4  0  0  0  0
 15 34  4  0  0  0  0
 16 41  2  0  0  0  0
 17 18  1  0  0  0  0
 17 20  1  0  0  0  0
 17 51  1  0  0  0  0
 17 52  1  0  0  0  0
 18 23  1  0  0  0  0
 18 53  1  0  0  0  0
 18 54  1  0  0  0  0
 19 21  4  0  0  0  0
 19 29  1  0  0  0  0
 19 32  4  0  0  0  0
 20 24  1  0  0  0  0
 20 55  1  0  0  0  0
 20 56  1  0  0  0  0
 21 25  1  0  0  0  0
 21 34  4  0  0  0  0
 22 27  1  0  0  0  0
 22 28  1  0  0  0  0
 22 57  1  0  0  0  0
 22 58  1  0  0  0  0
 23 26  1  0  0  0  0
 23 59  1  0  0  0  0
 24 60  1  0  0  0  0
 24 61  1  0  0  0  0
 25 35  1  0  0  0  0
 25 62  1  0  0  0  0
 25 63  1  0  0  0  0
 27 31  1  0  0  0  0
 27 64  1  0  0  0  0
 28 30  1  0  0  0  0
 28 65  1  0  0  0  0
 28 66  1  0  0  0  0
 29 31  2  0  0  0  0
 29 67  1  0  0  0  0
 30 33  1  0  0  0  0
 30 68  1  0  0  0  0
 30 69  1  0  0  0  0
 31 70  1  0  0  0  0
 33 38  1  0  0  0  0
 33 71  1  0  0  0  0
 33 72  1  0  0  0  0
 35 36  2  0  0  0  0
 35 73  1  0  0  0  0
 36 37  1  0  0  0  0
 36 74  1  0  0  0  0
 37 39  1  0  0  0  0
 37 75  1  0  0  0  0
 37 76  1  0  0  0  0
 38 77  1  0  0  0  0
 38 78  1  0  0  0  0
 38 79  1  0  0  0  0
 39 40  1  0  0  0  0
 39 80  1  0  0  0  0
 39 81  1  0  0  0  0
 40 41  1  0  0  0  0
 40 82  1  0  0  0  0
 40 83  1  0  0  0  0
M  END
> <ConfClashScore>
0 

> <ConfOneFourInteractionScore>
-0.987923 

> <ConfScore>
-0.0382687 

> <ConfScorePBest>
0.0058117 

> <ConfTolerance>
1.75068 

$$$$
9548876
  PyMOL2.2          3D                             0

 83 83  0  0  0  0  0  0  0  0999 V2000
   -5.0151   -1.0256   -0.1098 H   0  0  0  1  0  0  0  0  0  0  0  0
   -3.7399    3.6478    0.6532 H   0  0  0  1  0  0  0  0  0  0  0  0
   -3.6042    3.4879   -1.0813 H   0  0  0  1  0  0  0  0  0  0  0  0
   -3.1902    3.1880   -0.1413 C   0  0  0  1  0  0  0  0  0  0  0  0
   -2.1658    3.4926   -0.0888 H   0  0  0  1  0  0  0  0  0  0  0  0
  -11.2673    3.9339    3.0720 N   0  0  0  1  0  0  0  0  0  0  0  0
   -9.5998    5.2413   -1.1112 C   0  0  0  1  0  0  0  0  0  0  0  0
   -9.4447    6.5113   -1.9250 C   0  0  0  1  0  0  0  0  0  0  0  0
   -9.7338    4.1557   -1.6514 O   0  0  0  1  0  0  0  0  0  0  0  0
  -11.8446    4.3639    4.3368 C   0  0  0  1  0  0  0  0  0  0  0  0
    1.4430    1.4252    2.0463 O   0  0  0  1  0  0  0  0  0  0  0  0
  -10.2683    5.9236    2.8179 O   0  0  0  1  0  0  0  0  0  0  0  0
   -9.5791    5.3966    0.2197 N   0  0  0  1  0  0  0  0  0  0  0  0
   -1.0875   -7.4809   -3.5949 O   0  5  0  1  0  0  0  0  0  0  0  0
   -4.4594    1.0613   -0.2022 N   0  0  0  1  0  0  0  0  0  0  0  0
    0.5228   -6.2925   -2.5136 O   0  0  0  1  0  0  0  0  0  0  0  0
   -7.7449    3.0281    0.2953 C   0  0  0  1  0  0  0  0  0  0  0  0
   -8.5149    3.5670    1.4753 C   0  0  0  1  0  0  0  0  0  0  0  0
   -2.3142    0.7501    0.2894 C   0  0  0  1  0  0  0  0  0  0  0  0
   -6.4528    2.3246    0.6294 C   0  0  0  1  0  0  0  0  0  0  0  0
   -2.9509   -0.4996    0.2804 C   0  0  0  1  0  0  0  0  0  0  0  0
    1.8193   -0.9584    2.0323 C   0  0  0  1  0  0  0  0  0  0  0  0
   -9.8211    4.2914    1.1352 C   0  0  0  1  0  0  0  0  0  0  0  0
   -5.7266    1.7097   -0.5412 C   0  0  0  1  0  0  0  0  0  0  0  0
   -2.2483   -1.8060    0.5650 C   0  0  0  1  0  0  0  0  0  0  0  0
  -10.4987    4.7992    2.4044 C   0  0  0  1  0  0  0  0  0  0  0  0
    1.3892    0.2663    1.2201 C   0  0  0  1  0  0  0  0  0  0  0  0
    3.2732   -0.9773    2.4650 C   0  0  0  1  0  0  0  0  0  0  0  0
   -0.9027    0.9878    0.5658 C   0  0  0  1  0  0  0  0  0  0  0  0
    4.2468   -0.9006    1.3047 C   0  0  0  1  0  0  0  0  0  0  0  0
    0.0276    0.0657    0.6343 C   0  0  0  1  0  0  0  0  0  0  0  0
   -3.2746    1.7061   -0.0120 C   0  0  0  1  0  0  0  0  0  0  0  0
    5.6822   -0.7350    1.7384 C   0  0  0  1  0  0  0  0  0  0  0  0
   -4.2817   -0.2928   -0.0265 C   0  0  0  1  0  0  0  0  0  0  0  0
   -3.1831   -2.8483    1.0913 C   0  0  0  1  0  0  0  0  0  0  0  0
   -3.5849   -3.9022    0.4218 C   0  0  0  1  0  0  0  0  0  0  0  0
   -3.2563   -4.2497   -1.0056 C   0  0  0  1  0  0  0  0  0  0  0  0
    6.7113   -0.7660    0.6202 C   0  0  0  1  0  0  0  0  0  0  0  0
   -2.0612   -5.1697   -1.1936 C   0  0  0  1  0  0  0  0  0  0  0  0
   -1.7081   -5.4084   -2.6526 C   0  0  0  1  0  0  0  0  0  0  0  0
   -0.6307   -6.4090   -2.8935 C   0  0  0  1  0  0  0  0  0  0  0  0
  -11.4374    3.0353    2.7200 H   0  0  0  1  0  0  0  0  0  0  0  0
   -9.2474    7.3337   -1.2696 H   0  0  0  1  0  0  0  0  0  0  0  0
  -10.3466    6.6980   -2.4697 H   0  0  0  1  0  0  0  0  0  0  0  0
   -8.6306    6.3984   -2.6102 H   0  0  0  1  0  0  0  0  0  0  0  0
  -12.7705    3.8528    4.4989 H   0  0  0  1  0  0  0  0  0  0  0  0
  -12.0202    5.4190    4.3081 H   0  0  0  1  0  0  0  0  0  0  0  0
  -11.1675    4.1361    5.1334 H   0  0  0  1  0  0  0  0  0  0  0  0
    0.6883    1.9880    1.8584 H   0  0  0  1  0  0  0  0  0  0  0  0
   -9.3946    6.2852    0.5894 H   0  0  0  1  0  0  0  0  0  0  0  0
   -7.5154    3.8492   -0.3513 H   0  0  0  1  0  0  0  0  0  0  0  0
   -8.3748    2.3332   -0.2197 H   0  0  0  1  0  0  0  0  0  0  0  0
   -7.8820    4.2555    1.9952 H   0  0  0  1  0  0  0  0  0  0  0  0
   -8.7518    2.7447    2.1176 H   0  0  0  1  0  0  0  0  0  0  0  0
   -6.6735    1.5441    1.3273 H   0  0  0  1  0  0  0  0  0  0  0  0
   -5.7981    3.0373    1.0859 H   0  0  0  1  0  0  0  0  0  0  0  0
    1.6418   -1.8286    1.4355 H   0  0  0  1  0  0  0  0  0  0  0  0
    1.2129   -0.9995    2.9129 H   0  0  0  1  0  0  0  0  0  0  0  0
  -10.4773    3.5881    0.6666 H   0  0  0  1  0  0  0  0  0  0  0  0
   -6.3682    0.9764   -0.9835 H   0  0  0  1  0  0  0  0  0  0  0  0
   -5.5253    2.4835   -1.2522 H   0  0  0  1  0  0  0  0  0  0  0  0
   -1.4812   -1.6334    1.2907 H   0  0  0  1  0  0  0  0  0  0  0  0
   -1.8079   -2.1647   -0.3418 H   0  0  0  1  0  0  0  0  0  0  0  0
    2.0810    0.3802    0.4118 H   0  0  0  1  0  0  0  0  0  0  0  0
    3.4558   -1.8848    3.0016 H   0  0  0  1  0  0  0  0  0  0  0  0
    3.4464   -0.1405    3.1090 H   0  0  0  1  0  0  0  0  0  0  0  0
   -0.6081    1.9729    0.7221 H   0  0  0  1  0  0  0  0  0  0  0  0
    3.9791   -0.0653    0.6918 H   0  0  0  1  0  0  0  0  0  0  0  0
    4.1666   -1.8023    0.7344 H   0  0  0  1  0  0  0  0  0  0  0  0
   -0.1983   -0.8751    0.2528 H   0  0  0  1  0  0  0  0  0  0  0  0
    5.9135   -1.5258    2.4211 H   0  0  0  1  0  0  0  0  0  0  0  0
    5.7685    0.2063    2.2398 H   0  0  0  1  0  0  0  0  0  0  0  0
   -3.5411   -2.7285    2.0603 H   0  0  0  1  0  0  0  0  0  0  0  0
   -4.1969   -4.5703    0.9324 H   0  0  0  1  0  0  0  0  0  0  0  0
   -3.0570   -3.3384   -1.5296 H   0  0  0  1  0  0  0  0  0  0  0  0
   -4.1120   -4.7284   -1.4341 H   0  0  0  1  0  0  0  0  0  0  0  0
    7.6879   -0.8977    1.0371 H   0  0  0  1  0  0  0  0  0  0  0  0
    6.6766    0.1560    0.0782 H   0  0  0  1  0  0  0  0  0  0  0  0
    6.4939   -1.5779   -0.0419 H   0  0  0  1  0  0  0  0  0  0  0  0
   -2.2842   -6.1127   -0.7398 H   0  0  0  1  0  0  0  0  0  0  0  0
   -1.2152   -4.7306   -0.7073 H   0  0  0  1  0  0  0  0  0  0  0  0
   -1.3928   -4.4762   -3.0727 H   0  0  0  1  0  0  0  0  0  0  0  0
   -2.5905   -5.7462   -3.1547 H   0  0  0  1  0  0  0  0  0  0  0  0
  1 34  1  0  0  0  0
  2  4  1  0  0  0  0
  3  4  1  0  0  0  0
  4  5  1  0  0  0  0
  4 32  1  0  0  0  0
  6 10  1  0  0  0  0
  6 26  1  0  0  0  0
  6 42  1  0  0  0  0
  7  8  1  0  0  0  0
  7  9  2  0  0  0  0
  7 13  1  0  0  0  0
  8 43  1  0  0  0  0
  8 44  1  0  0  0  0
  8 45  1  0  0  0  0
 10 46  1  0  0  0  0
 10 47  1  0  0  0  0
 10 48  1  0  0  0  0
 11 27  1  0  0  0  0
 11 49  1  0  0  0  0
 12 26  2  0  0  0  0
 13 23  1  0  0  0  0
 13 50  1  0  0  0  0
 14 41  1  0  0  0  0
 15 24  1  0  0  0  0
 15 32  4  0  0  0  0
 15 34  4  0  0  0  0
 16 41  2  0  0  0  0
 17 18  1  0  0  0  0
 17 20  1  0  0  0  0
 17 51  1  0  0  0  0
 17 52  1  0  0  0  0
 18 23  1  0  0  0  0
 18 53  1  0  0  0  0
 18 54  1  0  0  0  0
 19 21  4  0  0  0  0
 19 29  1  0  0  0  0
 19 32  4  0  0  0  0
 20 24  1  0  0  0  0
 20 55  1  0  0  0  0
 20 56  1  0  0  0  0
 21 25  1  0  0  0  0
 21 34  4  0  0  0  0
 22 27  1  0  0  0  0
 22 28  1  0  0  0  0
 22 57  1  0  0  0  0
 22 58  1  0  0  0  0
 23 26  1  0  0  0  0
 23 59  1  0  0  0  0
 24 60  1  0  0  0  0
 24 61  1  0  0  0  0
 25 35  1  0  0  0  0
 25 62  1  0  0  0  0
 25 63  1  0  0  0  0
 27 31  1  0  0  0  0
 27 64  1  0  0  0  0
 28 30  1  0  0  0  0
 28 65  1  0  0  0  0
 28 66  1  0  0  0  0
 29 31  2  0  0  0  0
 29 67  1  0  0  0  0
 30 33  1  0  0  0  0
 30 68  1  0  0  0  0
 30 69  1  0  0  0  0
 31 70  1  0  0  0  0
 33 38  1  0  0  0  0
 33 71  1  0  0  0  0
 33 72  1  0  0  0  0
 35 36  2  0  0  0  0
 35 73  1  0  0  0  0
 36 37  1  0  0  0  0
 36 74  1  0  0  0  0
 37 39  1  0  0  0  0
 37 75  1  0  0  0  0
 37 76  1  0  0  0  0
 38 77  1  0  0  0  0
 38 78  1  0  0  0  0
 38 79  1  0  0  0  0
 39 40  1  0  0  0  0
 39 80  1  0  0  0  0
 39 81  1  0  0  0  0
 40 41  1  0  0  0  0
 40 82  1  0  0  0  0
 40 83  1  0  0  0  0
M  END
> <ConfClashScore>
0 

> <ConfOneFourInteractionScore>
-0.995837 

> <ConfScore>
-0.0351827 

> <ConfScorePBest>
0.00578322 

> <ConfTolerance>
1.77789 

$$$$
9548876
  PyMOL2.2          3D                             0

 83 83  0  0  0  0  0  0  0  0999 V2000
   -5.0188   -1.0287   -0.1062 H   0  0  0  1  0  0  0  0  0  0  0  0
   -3.9226    3.5225   -0.8481 H   0  0  0  1  0  0  0  0  0  0  0  0
   -2.2146    3.4554   -0.4866 H   0  0  0  1  0  0  0  0  0  0  0  0
   -3.1913    3.1837   -0.1443 C   0  0  0  1  0  0  0  0  0  0  0  0
   -3.3753    3.6372    0.8072 H   0  0  0  1  0  0  0  0  0  0  0  0
  -11.6456    2.2584   -0.3760 N   0  0  0  1  0  0  0  0  0  0  0  0
  -10.3531    6.1439   -1.1486 C   0  0  0  1  0  0  0  0  0  0  0  0
  -10.2962    7.6017   -0.7353 C   0  0  0  1  0  0  0  0  0  0  0  0
  -10.8312    5.8052   -2.2304 O   0  0  0  1  0  0  0  0  0  0  0  0
  -12.7122    1.5019    0.2627 C   0  0  0  1  0  0  0  0  0  0  0  0
    1.6857    2.9205   -0.7567 O   0  0  0  1  0  0  0  0  0  0  0  0
  -10.9290    3.2201    1.5168 O   0  0  0  1  0  0  0  0  0  0  0  0
   -9.8531    5.2669   -0.2637 N   0  0  0  1  0  0  0  0  0  0  0  0
   -3.5383   -5.6814   -4.4186 O   0  5  0  1  0  0  0  0  0  0  0  0
   -4.4618    1.0577   -0.2018 N   0  0  0  1  0  0  0  0  0  0  0  0
   -3.5570   -6.7634   -2.4177 O   0  0  0  1  0  0  0  0  0  0  0  0
   -8.2246    1.8247   -0.3726 C   0  0  0  1  0  0  0  0  0  0  0  0
   -8.3389    3.3321   -0.1823 C   0  0  0  1  0  0  0  0  0  0  0  0
   -2.3168    0.7458    0.2900 C   0  0  0  1  0  0  0  0  0  0  0  0
   -6.9291    1.2457    0.1700 C   0  0  0  1  0  0  0  0  0  0  0  0
   -2.9543   -0.5034    0.2830 C   0  0  0  1  0  0  0  0  0  0  0  0
    1.6789    3.1397    1.6566 C   0  0  0  1  0  0  0  0  0  0  0  0
   -9.7601    3.8093   -0.4787 C   0  0  0  1  0  0  0  0  0  0  0  0
   -5.7011    1.7579   -0.5411 C   0  0  0  1  0  0  0  0  0  0  0  0
   -2.2524   -1.8098    0.5695 C   0  0  0  1  0  0  0  0  0  0  0  0
  -10.8532    3.0902    0.3061 C   0  0  0  1  0  0  0  0  0  0  0  0
    1.2184    2.3394    0.4479 C   0  0  0  1  0  0  0  0  0  0  0  0
    0.8252    4.3835    1.8359 C   0  0  0  1  0  0  0  0  0  0  0  0
   -0.9033    0.9834    0.5662 C   0  0  0  1  0  0  0  0  0  0  0  0
    1.2699    5.2561    2.9938 C   0  0  0  1  0  0  0  0  0  0  0  0
   -0.2527    2.0973    0.4697 C   0  0  0  1  0  0  0  0  0  0  0  0
   -3.2766    1.7020   -0.0127 C   0  0  0  1  0  0  0  0  0  0  0  0
    0.4917    6.5351    3.1793 C   0  0  0  1  0  0  0  0  0  0  0  0
   -4.2850   -0.2963   -0.0242 C   0  0  0  1  0  0  0  0  0  0  0  0
   -3.0930   -2.8260    1.2752 C   0  0  0  1  0  0  0  0  0  0  0  0
   -3.5411   -3.9579    0.7868 C   0  0  0  1  0  0  0  0  0  0  0  0
   -3.5477   -4.2745   -0.6750 C   0  0  0  1  0  0  0  0  0  0  0  0
    0.9757    7.3693    4.3516 C   0  0  0  1  0  0  0  0  0  0  0  0
   -4.9274   -4.6535   -1.1972 C   0  0  0  1  0  0  0  0  0  0  0  0
   -4.9097   -4.7985   -2.7133 C   0  0  0  1  0  0  0  0  0  0  0  0
   -3.9439   -5.8531   -3.1319 C   0  0  0  1  0  0  0  0  0  0  0  0
  -11.5035    2.1540   -1.3401 H   0  0  0  1  0  0  0  0  0  0  0  0
  -11.1615    7.8421   -0.1537 H   0  0  0  1  0  0  0  0  0  0  0  0
  -10.2710    8.2191   -1.6088 H   0  0  0  1  0  0  0  0  0  0  0  0
   -9.4158    7.7725   -0.1516 H   0  0  0  1  0  0  0  0  0  0  0  0
  -13.1117    2.0671    1.0787 H   0  0  0  1  0  0  0  0  0  0  0  0
  -12.3222    0.5750    0.6282 H   0  0  0  1  0  0  0  0  0  0  0  0
  -13.4869    1.3075   -0.4493 H   0  0  0  1  0  0  0  0  0  0  0  0
    1.6123    3.8760   -0.7012 H   0  0  0  1  0  0  0  0  0  0  0  0
   -9.5250    5.6209    0.5892 H   0  0  0  1  0  0  0  0  0  0  0  0
   -8.2802    1.6097   -1.4193 H   0  0  0  1  0  0  0  0  0  0  0  0
   -9.0434    1.3560    0.1323 H   0  0  0  1  0  0  0  0  0  0  0  0
   -7.6585    3.8222   -0.8470 H   0  0  0  1  0  0  0  0  0  0  0  0
   -8.0899    3.5780    0.8288 H   0  0  0  1  0  0  0  0  0  0  0  0
   -6.9629    0.1814    0.0648 H   0  0  0  1  0  0  0  0  0  0  0  0
   -6.8518    1.4999    1.2064 H   0  0  0  1  0  0  0  0  0  0  0  0
    2.6988    3.4314    1.5164 H   0  0  0  1  0  0  0  0  0  0  0  0
    1.5989    2.5300    2.5322 H   0  0  0  1  0  0  0  0  0  0  0  0
   -9.9436    3.6220   -1.5161 H   0  0  0  1  0  0  0  0  0  0  0  0
   -5.8611    1.6605   -1.5946 H   0  0  0  1  0  0  0  0  0  0  0  0
   -5.5787    2.7913   -0.2924 H   0  0  0  1  0  0  0  0  0  0  0  0
   -1.3974   -1.6028    1.1786 H   0  0  0  1  0  0  0  0  0  0  0  0
   -1.9341   -2.2290   -0.3622 H   0  0  0  1  0  0  0  0  0  0  0  0
    1.6774    1.3769    0.5366 H   0  0  0  1  0  0  0  0  0  0  0  0
   -0.1858    4.0789    2.0093 H   0  0  0  1  0  0  0  0  0  0  0  0
    0.8749    4.9616    0.9369 H   0  0  0  1  0  0  0  0  0  0  0  0
   -0.3531    0.1578    0.8782 H   0  0  0  1  0  0  0  0  0  0  0  0
    2.2962    5.5146    2.8365 H   0  0  0  1  0  0  0  0  0  0  0  0
    1.1799    4.6823    3.8925 H   0  0  0  1  0  0  0  0  0  0  0  0
   -0.8431    2.9503    0.3964 H   0  0  0  1  0  0  0  0  0  0  0  0
   -0.5362    6.2863    3.3414 H   0  0  0  1  0  0  0  0  0  0  0  0
    0.5815    7.1192    2.2873 H   0  0  0  1  0  0  0  0  0  0  0  0
   -3.3501   -2.6119    2.2599 H   0  0  0  1  0  0  0  0  0  0  0  0
   -3.9101   -4.6703    1.4486 H   0  0  0  1  0  0  0  0  0  0  0  0
   -2.8809   -5.0930   -0.8492 H   0  0  0  1  0  0  0  0  0  0  0  0
   -3.2051   -3.4143   -1.2113 H   0  0  0  1  0  0  0  0  0  0  0  0
    1.8712    6.9400    4.7500 H   0  0  0  1  0  0  0  0  0  0  0  0
    0.2216    7.3889    5.1105 H   0  0  0  1  0  0  0  0  0  0  0  0
    1.1754    8.3671    4.0207 H   0  0  0  1  0  0  0  0  0  0  0  0
   -5.6270   -3.8907   -0.9259 H   0  0  0  1  0  0  0  0  0  0  0  0
   -5.2250   -5.5833   -0.7593 H   0  0  0  1  0  0  0  0  0  0  0  0
   -4.6224   -3.8657   -3.1516 H   0  0  0  1  0  0  0  0  0  0  0  0
   -5.8891   -5.0655   -3.0516 H   0  0  0  1  0  0  0  0  0  0  0  0
  1 34  1  0  0  0  0
  2  4  1  0  0  0  0
  3  4  1  0  0  0  0
  4  5  1  0  0  0  0
  4 32  1  0  0  0  0
  6 10  1  0  0  0  0
  6 26  1  0  0  0  0
  6 42  1  0  0  0  0
  7  8  1  0  0  0  0
  7  9  2  0  0  0  0
  7 13  1  0  0  0  0
  8 43  1  0  0  0  0
  8 44  1  0  0  0  0
  8 45  1  0  0  0  0
 10 46  1  0  0  0  0
 10 47  1  0  0  0  0
 10 48  1  0  0  0  0
 11 27  1  0  0  0  0
 11 49  1  0  0  0  0
 12 26  2  0  0  0  0
 13 23  1  0  0  0  0
 13 50  1  0  0  0  0
 14 41  1  0  0  0  0
 15 24  1  0  0  0  0
 15 32  4  0  0  0  0
 15 34  4  0  0  0  0
 16 41  2  0  0  0  0
 17 18  1  0  0  0  0
 17 20  1  0  0  0  0
 17 51  1  0  0  0  0
 17 52  1  0  0  0  0
 18 23  1  0  0  0  0
 18 53  1  0  0  0  0
 18 54  1  0  0  0  0
 19 21  4  0  0  0  0
 19 29  1  0  0  0  0
 19 32  4  0  0  0  0
 20 24  1  0  0  0  0
 20 55  1  0  0  0  0
 20 56  1  0  0  0  0
 21 25  1  0  0  0  0
 21 34  4  0  0  0  0
 22 27  1  0  0  0  0
 22 28  1  0  0  0  0
 22 57  1  0  0  0  0
 22 58  1  0  0  0  0
 23 26  1  0  0  0  0
 23 59  1  0  0  0  0
 24 60  1  0  0  0  0
 24 61  1  0  0  0  0
 25 35  1  0  0  0  0
 25 62  1  0  0  0  0
 25 63  1  0  0  0  0
 27 31  1  0  0  0  0
 27 64  1  0  0  0  0
 28 30  1  0  0  0  0
 28 65  1  0  0  0  0
 28 66  1  0  0  0  0
 29 31  2  0  0  0  0
 29 67  1  0  0  0  0
 30 33  1  0  0  0  0
 30 68  1  0  0  0  0
 30 69  1  0  0  0  0
 31 70  1  0  0  0  0
 33 38  1  0  0  0  0
 33 71  1  0  0  0  0
 33 72  1  0  0  0  0
 35 36  2  0  0  0  0
 35 73  1  0  0  0  0
 36 37  1  0  0  0  0
 36 74  1  0  0  0  0
 37 39  1  0  0  0  0
 37 75  1  0  0  0  0
 37 76  1  0  0  0  0
 38 77  1  0  0  0  0
 38 78  1  0  0  0  0
 38 79  1  0  0  0  0
 39 40  1  0  0  0  0
 39 80  1  0  0  0  0
 39 81  1  0  0  0  0
 40 41  1  0  0  0  0
 40 82  1  0  0  0  0
 40 83  1  0  0  0  0
M  END
> <ConfClashScore>
0 

> <ConfOneFourInteractionScore>
-0.99303 

> <ConfScore>
-0.0300164 

> <ConfScorePBest>
0.00575474 

> <ConfTolerance>
1.71812 

$$$$
9548876
  PyMOL2.2          3D                             0

 83 83  0  0  0  0  0  0  0  0999 V2000
   -5.0245   -1.0054   -0.1137 H   0  0  0  1  0  0  0  0  0  0  0  0
   -3.1800    3.4492   -1.1802 H   0  0  0  1  0  0  0  0  0  0  0  0
   -2.3139    3.5573    0.3333 H   0  0  0  1  0  0  0  0  0  0  0  0
   -3.1973    3.1865   -0.1431 C   0  0  0  1  0  0  0  0  0  0  0  0
   -4.0604    3.6178    0.3195 H   0  0  0  1  0  0  0  0  0  0  0  0
   -8.6481    5.5335   -4.7434 N   0  0  0  1  0  0  0  0  0  0  0  0
   -9.5041    3.6621   -6.7622 C   0  0  0  1  0  0  0  0  0  0  0  0
   -9.3387    3.6691   -8.2801 C   0  0  0  1  0  0  0  0  0  0  0  0
  -10.5041    4.1394   -6.2325 O   0  0  0  1  0  0  0  0  0  0  0  0
   -8.7332    6.8818   -4.2024 C   0  0  0  1  0  0  0  0  0  0  0  0
    1.5914    3.4567    0.1468 O   0  0  0  1  0  0  0  0  0  0  0  0
   -9.1089    4.4991   -2.8097 O   0  0  0  1  0  0  0  0  0  0  0  0
   -8.4600    3.1815   -6.0810 N   0  0  0  1  0  0  0  0  0  0  0  0
   -2.4937   -4.4747    7.8036 O   0  5  0  1  0  0  0  0  0  0  0  0
   -4.4423    1.0745   -0.2000 N   0  0  0  1  0  0  0  0  0  0  0  0
   -4.4802   -4.0195    6.7599 O   0  0  0  1  0  0  0  0  0  0  0  0
   -7.1489    2.2896   -2.5914 C   0  0  0  1  0  0  0  0  0  0  0  0
   -7.1216    2.5602   -4.0834 C   0  0  0  1  0  0  0  0  0  0  0  0
   -2.3020    0.7349    0.2938 C   0  0  0  1  0  0  0  0  0  0  0  0
   -5.8284    1.7775   -2.0491 C   0  0  0  1  0  0  0  0  0  0  0  0
   -2.9544   -0.5066    0.2808 C   0  0  0  1  0  0  0  0  0  0  0  0
    1.6557    2.5949    2.3579 C   0  0  0  1  0  0  0  0  0  0  0  0
   -8.4504    3.1007   -4.6280 C   0  0  0  1  0  0  0  0  0  0  0  0
   -5.7123    1.7459   -0.5423 C   0  0  0  1  0  0  0  0  0  0  0  0
   -2.2688   -1.8225    0.5631 C   0  0  0  1  0  0  0  0  0  0  0  0
   -8.7365    4.4474   -3.9703 C   0  0  0  1  0  0  0  0  0  0  0  0
    1.1858    2.3315    0.9240 C   0  0  0  1  0  0  0  0  0  0  0  0
    1.4796    1.3555    3.2186 C   0  0  0  1  0  0  0  0  0  0  0  0
   -0.8862    0.9543    0.5732 C   0  0  0  1  0  0  0  0  0  0  0  0
    2.3059    1.5267    4.4787 C   0  0  0  1  0  0  0  0  0  0  0  0
   -0.2878    2.0867    0.8457 C   0  0  0  1  0  0  0  0  0  0  0  0
   -3.2497    1.7037   -0.0064 C   0  0  0  1  0  0  0  0  0  0  0  0
    2.4415    0.2483    5.2882 C   0  0  0  1  0  0  0  0  0  0  0  0
   -4.2820   -0.2822   -0.0275 C   0  0  0  1  0  0  0  0  0  0  0  0
   -3.1906   -2.9967    0.6575 C   0  0  0  1  0  0  0  0  0  0  0  0
   -3.4208   -3.7363    1.7134 C   0  0  0  1  0  0  0  0  0  0  0  0
   -2.5765   -3.7507    2.9480 C   0  0  0  1  0  0  0  0  0  0  0  0
    1.0770   -0.3256    5.6197 C   0  0  0  1  0  0  0  0  0  0  0  0
   -3.3416   -3.7151    4.2608 C   0  0  0  1  0  0  0  0  0  0  0  0
   -2.4849   -4.0634    5.4671 C   0  0  0  1  0  0  0  0  0  0  0  0
   -3.2710   -4.1787    6.7276 C   0  0  0  1  0  0  0  0  0  0  0  0
   -8.5216    5.4181   -5.7083 H   0  0  0  1  0  0  0  0  0  0  0  0
   -8.8819    4.5872   -8.5855 H   0  0  0  1  0  0  0  0  0  0  0  0
  -10.2987    3.5771   -8.7437 H   0  0  0  1  0  0  0  0  0  0  0  0
   -8.7196    2.8477   -8.5750 H   0  0  0  1  0  0  0  0  0  0  0  0
   -8.8216    6.8343   -3.1371 H   0  0  0  1  0  0  0  0  0  0  0  0
   -9.5905    7.3757   -4.6095 H   0  0  0  1  0  0  0  0  0  0  0  0
   -7.8499    7.4267   -4.4627 H   0  0  0  1  0  0  0  0  0  0  0  0
    0.8662    4.0829    0.0869 H   0  0  0  1  0  0  0  0  0  0  0  0
   -7.6733    2.8726   -6.5771 H   0  0  0  1  0  0  0  0  0  0  0  0
   -7.9038    1.5577   -2.3932 H   0  0  0  1  0  0  0  0  0  0  0  0
   -7.3930    3.2004   -2.0858 H   0  0  0  1  0  0  0  0  0  0  0  0
   -6.8943    1.6456   -4.5900 H   0  0  0  1  0  0  0  0  0  0  0  0
   -6.3552    3.2795   -4.2838 H   0  0  0  1  0  0  0  0  0  0  0  0
   -5.0505    2.4078   -2.4264 H   0  0  0  1  0  0  0  0  0  0  0  0
   -5.6877    0.7806   -2.4114 H   0  0  0  1  0  0  0  0  0  0  0  0
    1.0807    3.3956    2.7740 H   0  0  0  1  0  0  0  0  0  0  0  0
    2.6901    2.8680    2.3435 H   0  0  0  1  0  0  0  0  0  0  0  0
   -9.2205    2.4234   -4.3226 H   0  0  0  1  0  0  0  0  0  0  0  0
   -5.7115    2.7439   -0.1567 H   0  0  0  1  0  0  0  0  0  0  0  0
   -6.5346    1.2026   -0.1256 H   0  0  0  1  0  0  0  0  0  0  0  0
   -1.7454   -1.7336    1.4921 H   0  0  0  1  0  0  0  0  0  0  0  0
   -1.5692   -2.0100   -0.2245 H   0  0  0  1  0  0  0  0  0  0  0  0
    1.6880    1.4562    0.5682 H   0  0  0  1  0  0  0  0  0  0  0  0
    1.8140    0.4924    2.6818 H   0  0  0  1  0  0  0  0  0  0  0  0
    0.4477    1.2382    3.4763 H   0  0  0  1  0  0  0  0  0  0  0  0
   -0.2798    0.1096    0.5535 H   0  0  0  1  0  0  0  0  0  0  0  0
    1.8392    2.2688    5.0922 H   0  0  0  1  0  0  0  0  0  0  0  0
    3.2847    1.8574    4.2003 H   0  0  0  1  0  0  0  0  0  0  0  0
   -0.9039    2.9046    1.0274 H   0  0  0  1  0  0  0  0  0  0  0  0
    2.9624    0.4627    6.1980 H   0  0  0  1  0  0  0  0  0  0  0  0
    2.9955   -0.4695    4.7202 H   0  0  0  1  0  0  0  0  0  0  0  0
   -3.7045   -3.2535   -0.2094 H   0  0  0  1  0  0  0  0  0  0  0  0
   -4.2526   -4.3601    1.6919 H   0  0  0  1  0  0  0  0  0  0  0  0
   -1.9330   -2.8964    2.9178 H   0  0  0  1  0  0  0  0  0  0  0  0
   -1.9864   -4.6431    2.9339 H   0  0  0  1  0  0  0  0  0  0  0  0
    1.0989   -1.3891    5.5035 H   0  0  0  1  0  0  0  0  0  0  0  0
    0.3454    0.0901    4.9587 H   0  0  0  1  0  0  0  0  0  0  0  0
    0.8241   -0.0826    6.6306 H   0  0  0  1  0  0  0  0  0  0  0  0
   -4.1474   -4.4168    4.2030 H   0  0  0  1  0  0  0  0  0  0  0  0
   -3.7353   -2.7296    4.3975 H   0  0  0  1  0  0  0  0  0  0  0  0
   -1.7482   -3.2979    5.5941 H   0  0  0  1  0  0  0  0  0  0  0  0
   -1.9997   -4.9989    5.2816 H   0  0  0  1  0  0  0  0  0  0  0  0
  1 34  1  0  0  0  0
  2  4  1  0  0  0  0
  3  4  1  0  0  0  0
  4  5  1  0  0  0  0
  4 32  1  0  0  0  0
  6 10  1  0  0  0  0
  6 26  1  0  0  0  0
  6 42  1  0  0  0  0
  7  8  1  0  0  0  0
  7  9  2  0  0  0  0
  7 13  1  0  0  0  0
  8 43  1  0  0  0  0
  8 44  1  0  0  0  0
  8 45  1  0  0  0  0
 10 46  1  0  0  0  0
 10 47  1  0  0  0  0
 10 48  1  0  0  0  0
 11 27  1  0  0  0  0
 11 49  1  0  0  0  0
 12 26  2  0  0  0  0
 13 23  1  0  0  0  0
 13 50  1  0  0  0  0
 14 41  1  0  0  0  0
 15 24  1  0  0  0  0
 15 32  4  0  0  0  0
 15 34  4  0  0  0  0
 16 41  2  0  0  0  0
 17 18  1  0  0  0  0
 17 20  1  0  0  0  0
 17 51  1  0  0  0  0
 17 52  1  0  0  0  0
 18 23  1  0  0  0  0
 18 53  1  0  0  0  0
 18 54  1  0  0  0  0
 19 21  4  0  0  0  0
 19 29  1  0  0  0  0
 19 32  4  0  0  0  0
 20 24  1  0  0  0  0
 20 55  1  0  0  0  0
 20 56  1  0  0  0  0
 21 25  1  0  0  0  0
 21 34  4  0  0  0  0
 22 27  1  0  0  0  0
 22 28  1  0  0  0  0
 22 57  1  0  0  0  0
 22 58  1  0  0  0  0
 23 26  1  0  0  0  0
 23 59  1  0  0  0  0
 24 60  1  0  0  0  0
 24 61  1  0  0  0  0
 25 35  1  0  0  0  0
 25 62  1  0  0  0  0
 25 63  1  0  0  0  0
 27 31  1  0  0  0  0
 27 64  1  0  0  0  0
 28 30  1  0  0  0  0
 28 65  1  0  0  0  0
 28 66  1  0  0  0  0
 29 31  2  0  0  0  0
 29 67  1  0  0  0  0
 30 33  1  0  0  0  0
 30 68  1  0  0  0  0
 30 69  1  0  0  0  0
 31 70  1  0  0  0  0
 33 38  1  0  0  0  0
 33 71  1  0  0  0  0
 33 72  1  0  0  0  0
 35 36  2  0  0  0  0
 35 73  1  0  0  0  0
 36 37  1  0  0  0  0
 36 74  1  0  0  0  0
 37 39  1  0  0  0  0
 37 75  1  0  0  0  0
 37 76  1  0  0  0  0
 38 77  1  0  0  0  0
 38 78  1  0  0  0  0
 38 79  1  0  0  0  0
 39 40  1  0  0  0  0
 39 80  1  0  0  0  0
 39 81  1  0  0  0  0
 40 41  1  0  0  0  0
 40 82  1  0  0  0  0
 40 83  1  0  0  0  0
M  END
> <ConfClashScore>
0 

> <ConfOneFourInteractionScore>
-0.98718 

> <ConfScore>
-0.0297382 

> <ConfScorePBest>
0.00572626 

> <ConfTolerance>
1.65374 

$$$$
9548876
  PyMOL2.2          3D                             0

 83 83  0  0  0  0  0  0  0  0999 V2000
   -5.0091   -1.0293   -0.1440 H   0  0  0  1  0  0  0  0  0  0  0  0
   -2.2171    3.5121    0.1927 H   0  0  0  1  0  0  0  0  0  0  0  0
   -3.9389    3.6360    0.4624 H   0  0  0  1  0  0  0  0  0  0  0  0
   -3.1793    3.1823   -0.1394 C   0  0  0  1  0  0  0  0  0  0  0  0
   -3.3188    3.4632   -1.1624 H   0  0  0  1  0  0  0  0  0  0  0  0
  -11.6304    2.7044    3.6214 N   0  0  0  1  0  0  0  0  0  0  0  0
  -11.2115    5.1347    1.9431 C   0  0  0  1  0  0  0  0  0  0  0  0
  -10.9803    6.6178    2.2236 C   0  0  0  1  0  0  0  0  0  0  0  0
  -12.3376    4.7865    1.5906 O   0  0  0  1  0  0  0  0  0  0  0  0
  -12.8354    2.3019    4.3312 C   0  0  0  1  0  0  0  0  0  0  0  0
    2.4662    0.5814    0.1994 O   0  0  0  1  0  0  0  0  0  0  0  0
  -11.8248    1.1912    1.9603 O   0  0  0  1  0  0  0  0  0  0  0  0
  -10.1613    4.3325    2.1056 N   0  0  0  1  0  0  0  0  0  0  0  0
   -2.6197   -2.4190   -3.4151 O   0  5  0  1  0  0  0  0  0  0  0  0
   -4.4500    1.0572   -0.2231 N   0  0  0  1  0  0  0  0  0  0  0  0
   -2.4811   -0.1767   -3.4109 O   0  0  0  1  0  0  0  0  0  0  0  0
   -7.9631    2.4156    0.5661 C   0  0  0  1  0  0  0  0  0  0  0  0
   -8.7918    2.3178    1.8378 C   0  0  0  1  0  0  0  0  0  0  0  0
   -2.3119    0.7421    0.2963 C   0  0  0  1  0  0  0  0  0  0  0  0
   -6.6037    1.7923    0.7645 C   0  0  0  1  0  0  0  0  0  0  0  0
   -2.9498   -0.5067    0.2753 C   0  0  0  1  0  0  0  0  0  0  0  0
    1.4553    1.9942    1.9317 C   0  0  0  1  0  0  0  0  0  0  0  0
  -10.1822    2.9137    1.6979 C   0  0  0  1  0  0  0  0  0  0  0  0
   -5.7343    1.7100   -0.4787 C   0  0  0  1  0  0  0  0  0  0  0  0
   -2.3009   -1.8461    0.5577 C   0  0  0  1  0  0  0  0  0  0  0  0
  -11.2779    2.1651    2.4509 C   0  0  0  1  0  0  0  0  0  0  0  0
    1.4779    0.6425    1.2162 C   0  0  0  1  0  0  0  0  0  0  0  0
    2.7957    2.4781    2.4581 C   0  0  0  1  0  0  0  0  0  0  0  0
   -0.9205    1.0840    0.5779 C   0  0  0  1  0  0  0  0  0  0  0  0
    2.7075    3.7968    3.2108 C   0  0  0  1  0  0  0  0  0  0  0  0
    0.1367    0.3377    0.6461 C   0  0  0  1  0  0  0  0  0  0  0  0
   -3.2671    1.7001   -0.0153 C   0  0  0  1  0  0  0  0  0  0  0  0
    3.9990    4.1748    3.9175 C   0  0  0  1  0  0  0  0  0  0  0  0
   -4.2761   -0.2976   -0.0489 C   0  0  0  1  0  0  0  0  0  0  0  0
   -2.7282   -3.0021   -0.2899 C   0  0  0  1  0  0  0  0  0  0  0  0
   -1.9852   -3.5763   -1.2026 C   0  0  0  1  0  0  0  0  0  0  0  0
   -0.4970   -3.3958   -1.3397 C   0  0  0  1  0  0  0  0  0  0  0  0
    3.8500    5.5055    4.6368 C   0  0  0  1  0  0  0  0  0  0  0  0
   -0.0284   -2.8388   -2.6741 C   0  0  0  1  0  0  0  0  0  0  0  0
   -0.5054   -1.4073   -2.8577 C   0  0  0  1  0  0  0  0  0  0  0  0
   -1.9355   -1.2556   -3.2472 C   0  0  0  1  0  0  0  0  0  0  0  0
  -11.0576    3.3949    4.0156 H   0  0  0  1  0  0  0  0  0  0  0  0
  -10.4712    7.0630    1.3944 H   0  0  0  1  0  0  0  0  0  0  0  0
  -10.3854    6.7251    3.1064 H   0  0  0  1  0  0  0  0  0  0  0  0
  -11.9224    7.1046    2.3664 H   0  0  0  1  0  0  0  0  0  0  0  0
  -12.6909    2.4333    5.3833 H   0  0  0  1  0  0  0  0  0  0  0  0
  -13.0431    1.2726    4.1258 H   0  0  0  1  0  0  0  0  0  0  0  0
  -13.6582    2.9040    4.0066 H   0  0  0  1  0  0  0  0  0  0  0  0
    2.6437   -0.3362   -0.0202 H   0  0  0  1  0  0  0  0  0  0  0  0
   -9.3462    4.6964    2.5099 H   0  0  0  1  0  0  0  0  0  0  0  0
   -7.8419    3.4461    0.3047 H   0  0  0  1  0  0  0  0  0  0  0  0
   -8.4717    1.9041   -0.2242 H   0  0  0  1  0  0  0  0  0  0  0  0
   -8.2770    2.8373    2.6189 H   0  0  0  1  0  0  0  0  0  0  0  0
   -8.8901    1.2851    2.1001 H   0  0  0  1  0  0  0  0  0  0  0  0
   -6.7475    0.7980    1.1324 H   0  0  0  1  0  0  0  0  0  0  0  0
   -6.0792    2.3713    1.4956 H   0  0  0  1  0  0  0  0  0  0  0  0
    0.7840    1.9168    2.7613 H   0  0  0  1  0  0  0  0  0  0  0  0
    1.0883    2.7258    1.2425 H   0  0  0  1  0  0  0  0  0  0  0  0
  -10.4362    2.8791    0.6591 H   0  0  0  1  0  0  0  0  0  0  0  0
   -6.2586    1.1539   -1.2275 H   0  0  0  1  0  0  0  0  0  0  0  0
   -5.5499    2.7022   -0.8344 H   0  0  0  1  0  0  0  0  0  0  0  0
   -2.5115   -2.0980    1.5761 H   0  0  0  1  0  0  0  0  0  0  0  0
   -1.2453   -1.7260    0.4305 H   0  0  0  1  0  0  0  0  0  0  0  0
    1.6936   -0.1045    1.9513 H   0  0  0  1  0  0  0  0  0  0  0  0
    3.4601    2.6045    1.6289 H   0  0  0  1  0  0  0  0  0  0  0  0
    3.1883    1.7351    3.1204 H   0  0  0  1  0  0  0  0  0  0  0  0
   -0.7495    2.0948    0.7530 H   0  0  0  1  0  0  0  0  0  0  0  0
    1.9307    3.7185    3.9425 H   0  0  0  1  0  0  0  0  0  0  0  0
    2.4639    4.5703    2.5127 H   0  0  0  1  0  0  0  0  0  0  0  0
    0.0329   -0.6153    0.2428 H   0  0  0  1  0  0  0  0  0  0  0  0
    4.7845    4.2525    3.1951 H   0  0  0  1  0  0  0  0  0  0  0  0
    4.2436    3.4158    4.6310 H   0  0  0  1  0  0  0  0  0  0  0  0
   -3.6868   -3.3777   -0.1435 H   0  0  0  1  0  0  0  0  0  0  0  0
   -2.4586   -4.2038   -1.8836 H   0  0  0  1  0  0  0  0  0  0  0  0
   -0.0345   -4.3504   -1.1997 H   0  0  0  1  0  0  0  0  0  0  0  0
   -0.1736   -2.7259   -0.5705 H   0  0  0  1  0  0  0  0  0  0  0  0
    4.5294    6.2170    4.2160 H   0  0  0  1  0  0  0  0  0  0  0  0
    4.0687    5.3753    5.6761 H   0  0  0  1  0  0  0  0  0  0  0  0
    2.8470    5.8610    4.5246 H   0  0  0  1  0  0  0  0  0  0  0  0
   -0.4216   -3.4437   -3.4643 H   0  0  0  1  0  0  0  0  0  0  0  0
    1.0409   -2.8592   -2.7067 H   0  0  0  1  0  0  0  0  0  0  0  0
    0.0940   -0.9549   -3.6199 H   0  0  0  1  0  0  0  0  0  0  0  0
   -0.3583   -0.8892   -1.9332 H   0  0  0  1  0  0  0  0  0  0  0  0
  1 34  1  0  0  0  0
  2  4  1  0  0  0  0
  3  4  1  0  0  0  0
  4  5  1  0  0  0  0
  4 32  1  0  0  0  0
  6 10  1  0  0  0  0
  6 26  1  0  0  0  0
  6 42  1  0  0  0  0
  7  8  1  0  0  0  0
  7  9  2  0  0  0  0
  7 13  1  0  0  0  0
  8 43  1  0  0  0  0
  8 44  1  0  0  0  0
  8 45  1  0  0  0  0
 10 46  1  0  0  0  0
 10 47  1  0  0  0  0
 10 48  1  0  0  0  0
 11 27  1  0  0  0  0
 11 49  1  0  0  0  0
 12 26  2  0  0  0  0
 13 23  1  0  0  0  0
 13 50  1  0  0  0  0
 14 41  1  0  0  0  0
 15 24  1  0  0  0  0
 15 32  4  0  0  0  0
 15 34  4  0  0  0  0
 16 41  2  0  0  0  0
 17 18  1  0  0  0  0
 17 20  1  0  0  0  0
 17 51  1  0  0  0  0
 17 52  1  0  0  0  0
 18 23  1  0  0  0  0
 18 53  1  0  0  0  0
 18 54  1  0  0  0  0
 19 21  4  0  0  0  0
 19 29  1  0  0  0  0
 19 32  4  0  0  0  0
 20 24  1  0  0  0  0
 20 55  1  0  0  0  0
 20 56  1  0  0  0  0
 21 25  1  0  0  0  0
 21 34  4  0  0  0  0
 22 27  1  0  0  0  0
 22 28  1  0  0  0  0
 22 57  1  0  0  0  0
 22 58  1  0  0  0  0
 23 26  1  0  0  0  0
 23 59  1  0  0  0  0
 24 60  1  0  0  0  0
 24 61  1  0  0  0  0
 25 35  1  0  0  0  0
 25 62  1  0  0  0  0
 25 63  1  0  0  0  0
 27 31  1  0  0  0  0
 27 64  1  0  0  0  0
 28 30  1  0  0  0  0
 28 65  1  0  0  0  0
 28 66  1  0  0  0  0
 29 31  2  0  0  0  0
 29 67  1  0  0  0  0
 30 33  1  0  0  0  0
 30 68  1  0  0  0  0
 30 69  1  0  0  0  0
 31 70  1  0  0  0  0
 33 38  1  0  0  0  0
 33 71  1  0  0  0  0
 33 72  1  0  0  0  0
 35 36  2  0  0  0  0
 35 73  1  0  0  0  0
 36 37  1  0  0  0  0
 36 74  1  0  0  0  0
 37 39  1  0  0  0  0
 37 75  1  0  0  0  0
 37 76  1  0  0  0  0
 38 77  1  0  0  0  0
 38 78  1  0  0  0  0
 38 79  1  0  0  0  0
 39 40  1  0  0  0  0
 39 80  1  0  0  0  0
 39 81  1  0  0  0  0
 40 41  1  0  0  0  0
 40 82  1  0  0  0  0
 40 83  1  0  0  0  0
M  END
> <ConfClashScore>
0 

> <ConfOneFourInteractionScore>
-0.986215 

> <ConfScore>
-0.0296757 

> <ConfScorePBest>
0.00569778 

> <ConfTolerance>
1.65917 

$$$$
9548876
  PyMOL2.2          3D                             0

 83 83  0  0  0  0  0  0  0  0999 V2000
   -4.9890   -1.0363   -0.1453 H   0  0  0  1  0  0  0  0  0  0  0  0
   -3.3084    3.6424    0.8119 H   0  0  0  1  0  0  0  0  0  0  0  0
   -3.9853    3.5335   -0.7951 H   0  0  0  1  0  0  0  0  0  0  0  0
   -3.2001    3.1928   -0.1530 C   0  0  0  1  0  0  0  0  0  0  0  0
   -2.2535    3.4670   -0.5698 H   0  0  0  1  0  0  0  0  0  0  0  0
   -5.7851   -0.6507    5.2959 N   0  0  0  1  0  0  0  0  0  0  0  0
   -8.6055   -0.5457    6.0827 C   0  0  0  1  0  0  0  0  0  0  0  0
   -9.4366   -0.1709    7.2888 C   0  0  0  1  0  0  0  0  0  0  0  0
   -8.2157   -1.7012    5.9195 O   0  0  0  1  0  0  0  0  0  0  0  0
   -4.6165   -1.4475    5.6385 C   0  0  0  1  0  0  0  0  0  0  0  0
    1.9098    1.2697    0.7517 O   0  0  0  1  0  0  0  0  0  0  0  0
   -6.0862   -1.6125    3.2853 O   0  0  0  1  0  0  0  0  0  0  0  0
   -8.3053    0.4233    5.1933 N   0  0  0  1  0  0  0  0  0  0  0  0
    1.3069    0.3586   -3.5688 O   0  5  0  1  0  0  0  0  0  0  0  0
   -4.4497    1.0551   -0.2321 N   0  0  0  1  0  0  0  0  0  0  0  0
    2.9162   -1.1949   -3.1041 O   0  0  0  1  0  0  0  0  0  0  0  0
   -6.7469    1.0073    1.7557 C   0  0  0  1  0  0  0  0  0  0  0  0
   -7.4130    1.2706    3.0834 C   0  0  0  1  0  0  0  0  0  0  0  0
   -2.3111    0.7633    0.2982 C   0  0  0  1  0  0  0  0  0  0  0  0
   -6.3869    2.1678    0.8481 C   0  0  0  1  0  0  0  0  0  0  0  0
   -2.9367   -0.4918    0.2805 C   0  0  0  1  0  0  0  0  0  0  0  0
    1.7841    0.4537    3.0071 C   0  0  0  1  0  0  0  0  0  0  0  0
   -7.6912    0.0326    3.9375 C   0  0  0  1  0  0  0  0  0  0  0  0
   -5.7270    1.7347   -0.4509 C   0  0  0  1  0  0  0  0  0  0  0  0
   -2.2780   -1.8196    0.5714 C   0  0  0  1  0  0  0  0  0  0  0  0
   -6.4309   -0.7935    4.1350 C   0  0  0  1  0  0  0  0  0  0  0  0
    1.3265    0.2704    1.5574 C   0  0  0  1  0  0  0  0  0  0  0  0
    1.2070   -0.5723    3.9507 C   0  0  0  1  0  0  0  0  0  0  0  0
   -0.8972    0.9528    0.6077 C   0  0  0  1  0  0  0  0  0  0  0  0
    1.6795   -0.4782    5.3803 C   0  0  0  1  0  0  0  0  0  0  0  0
   -0.1663    0.2842    1.4641 C   0  0  0  1  0  0  0  0  0  0  0  0
   -3.2741    1.7104   -0.0221 C   0  0  0  1  0  0  0  0  0  0  0  0
    1.7217   -1.7922    6.1432 C   0  0  0  1  0  0  0  0  0  0  0  0
   -4.2636   -0.2971   -0.0505 C   0  0  0  1  0  0  0  0  0  0  0  0
   -2.3850   -2.8193   -0.5297 C   0  0  0  1  0  0  0  0  0  0  0  0
   -1.4251   -3.4194   -1.2236 C   0  0  0  1  0  0  0  0  0  0  0  0
    0.0054   -3.4003   -0.7553 C   0  0  0  1  0  0  0  0  0  0  0  0
    2.2997   -1.5892    7.5343 C   0  0  0  1  0  0  0  0  0  0  0  0
    0.9640   -2.8246   -1.7894 C   0  0  0  1  0  0  0  0  0  0  0  0
    0.7984   -1.3249   -1.9973 C   0  0  0  1  0  0  0  0  0  0  0  0
    1.7878   -0.7557   -2.9550 C   0  0  0  1  0  0  0  0  0  0  0  0
   -6.1097    0.0136    5.9390 H   0  0  0  1  0  0  0  0  0  0  0  0
  -10.0940    0.6338    7.0335 H   0  0  0  1  0  0  0  0  0  0  0  0
   -8.7911    0.1352    8.0853 H   0  0  0  1  0  0  0  0  0  0  0  0
  -10.0131   -1.0165    7.6012 H   0  0  0  1  0  0  0  0  0  0  0  0
   -4.7637   -2.4560    5.3126 H   0  0  0  1  0  0  0  0  0  0  0  0
   -4.4735   -1.4328    6.6988 H   0  0  0  1  0  0  0  0  0  0  0  0
   -3.7530   -1.0395    5.1559 H   0  0  0  1  0  0  0  0  0  0  0  0
    2.1686    0.8909   -0.0916 H   0  0  0  1  0  0  0  0  0  0  0  0
   -8.4963    1.3643    5.3896 H   0  0  0  1  0  0  0  0  0  0  0  0
   -7.4048    0.3723    1.1999 H   0  0  0  1  0  0  0  0  0  0  0  0
   -5.8372    0.4839    1.9643 H   0  0  0  1  0  0  0  0  0  0  0  0
   -8.3473    1.7562    2.8928 H   0  0  0  1  0  0  0  0  0  0  0  0
   -6.7793    1.9237    3.6463 H   0  0  0  1  0  0  0  0  0  0  0  0
   -5.7129    2.8123    1.3727 H   0  0  0  1  0  0  0  0  0  0  0  0
   -7.2823    2.7038    0.6115 H   0  0  0  1  0  0  0  0  0  0  0  0
    1.4830    1.4258    3.3376 H   0  0  0  1  0  0  0  0  0  0  0  0
    2.8511    0.3806    3.0379 H   0  0  0  1  0  0  0  0  0  0  0  0
   -8.3890   -0.5739    3.3988 H   0  0  0  1  0  0  0  0  0  0  0  0
   -6.3868    1.0673   -0.9648 H   0  0  0  1  0  0  0  0  0  0  0  0
   -5.5552    2.6018   -1.0538 H   0  0  0  1  0  0  0  0  0  0  0  0
   -2.7357   -2.2349    1.4449 H   0  0  0  1  0  0  0  0  0  0  0  0
   -1.2401   -1.6426    0.7618 H   0  0  0  1  0  0  0  0  0  0  0  0
    1.6661   -0.6897    1.2290 H   0  0  0  1  0  0  0  0  0  0  0  0
    1.4660   -1.5425    3.5811 H   0  0  0  1  0  0  0  0  0  0  0  0
    0.1427   -0.4612    3.9474 H   0  0  0  1  0  0  0  0  0  0  0  0
   -0.4120    1.7098    0.0851 H   0  0  0  1  0  0  0  0  0  0  0  0
    1.0213    0.1848    5.9020 H   0  0  0  1  0  0  0  0  0  0  0  0
    2.6680   -0.0687    5.3743 H   0  0  0  1  0  0  0  0  0  0  0  0
   -0.6793   -0.3007    2.1543 H   0  0  0  1  0  0  0  0  0  0  0  0
    2.3321   -2.4892    5.6080 H   0  0  0  1  0  0  0  0  0  0  0  0
    0.7282   -2.1800    6.2292 H   0  0  0  1  0  0  0  0  0  0  0  0
   -3.3550   -3.0861   -0.7932 H   0  0  0  1  0  0  0  0  0  0  0  0
   -1.6662   -3.9119   -2.1073 H   0  0  0  1  0  0  0  0  0  0  0  0
    0.3049   -4.4035   -0.5345 H   0  0  0  1  0  0  0  0  0  0  0  0
    0.0651   -2.8061    0.1325 H   0  0  0  1  0  0  0  0  0  0  0  0
    3.1187   -2.2616    7.6825 H   0  0  0  1  0  0  0  0  0  0  0  0
    1.5433   -1.7820    8.2661 H   0  0  0  1  0  0  0  0  0  0  0  0
    2.6439   -0.5809    7.6335 H   0  0  0  1  0  0  0  0  0  0  0  0
    0.7917   -3.3177   -2.7233 H   0  0  0  1  0  0  0  0  0  0  0  0
    1.9661   -3.0136   -1.4652 H   0  0  0  1  0  0  0  0  0  0  0  0
    0.9173   -0.8350   -1.0535 H   0  0  0  1  0  0  0  0  0  0  0  0
   -0.1857   -1.1400   -2.3742 H   0  0  0  1  0  0  0  0  0  0  0  0
  1 34  1  0  0  0  0
  2  4  1  0  0  0  0
  3  4  1  0  0  0  0
  4  5  1  0  0  0  0
  4 32  1  0  0  0  0
  6 10  1  0  0  0  0
  6 26  1  0  0  0  0
  6 42  1  0  0  0  0
  7  8  1  0  0  0  0
  7  9  2  0  0  0  0
  7 13  1  0  0  0  0
  8 43  1  0  0  0  0
  8 44  1  0  0  0  0
  8 45  1  0  0  0  0
 10 46  1  0  0  0  0
 10 47  1  0  0  0  0
 10 48  1  0  0  0  0
 11 27  1  0  0  0  0
 11 49  1  0  0  0  0
 12 26  2  0  0  0  0
 13 23  1  0  0  0  0
 13 50  1  0  0  0  0
 14 41  1  0  0  0  0
 15 24  1  0  0  0  0
 15 32  4  0  0  0  0
 15 34  4  0  0  0  0
 16 41  2  0  0  0  0
 17 18  1  0  0  0  0
 17 20  1  0  0  0  0
 17 51  1  0  0  0  0
 17 52  1  0  0  0  0
 18 23  1  0  0  0  0
 18 53  1  0  0  0  0
 18 54  1  0  0  0  0
 19 21  4  0  0  0  0
 19 29  1  0  0  0  0
 19 32  4  0  0  0  0
 20 24  1  0  0  0  0
 20 55  1  0  0  0  0
 20 56  1  0  0  0  0
 21 25  1  0  0  0  0
 21 34  4  0  0  0  0
 22 27  1  0  0  0  0
 22 28  1  0  0  0  0
 22 57  1  0  0  0  0
 22 58  1  0  0  0  0
 23 26  1  0  0  0  0
 23 59  1  0  0  0  0
 24 60  1  0  0  0  0
 24 61  1  0  0  0  0
 25 35  1  0  0  0  0
 25 62  1  0  0  0  0
 25 63  1  0  0  0  0
 27 31  1  0  0  0  0
 27 64  1  0  0  0  0
 28 30  1  0  0  0  0
 28 65  1  0  0  0  0
 28 66  1  0  0  0  0
 29 31  2  0  0  0  0
 29 67  1  0  0  0  0
 30 33  1  0  0  0  0
 30 68  1  0  0  0  0
 30 69  1  0  0  0  0
 31 70  1  0  0  0  0
 33 38  1  0  0  0  0
 33 71  1  0  0  0  0
 33 72  1  0  0  0  0
 35 36  2  0  0  0  0
 35 73  1  0  0  0  0
 36 37  1  0  0  0  0
 36 74  1  0  0  0  0
 37 39  1  0  0  0  0
 37 75  1  0  0  0  0
 37 76  1  0  0  0  0
 38 77  1  0  0  0  0
 38 78  1  0  0  0  0
 38 79  1  0  0  0  0
 39 40  1  0  0  0  0
 39 80  1  0  0  0  0
 39 81  1  0  0  0  0
 40 41  1  0  0  0  0
 40 82  1  0  0  0  0
 40 83  1  0  0  0  0
M  END
> <ConfClashScore>
0 

> <ConfOneFourInteractionScore>
-0.98891 

> <ConfScore>
-0.0288538 

> <ConfScorePBest>
0.0056693 

> <ConfTolerance>
2.06503 

$$$$
9548876
  PyMOL2.2          3D                             0

 83 83  0  0  0  0  0  0  0  0999 V2000
   -4.9951   -1.0527   -0.1165 H   0  0  0  1  0  0  0  0  0  0  0  0
   -4.0716    3.6407    0.2393 H   0  0  0  1  0  0  0  0  0  0  0  0
   -3.0427    3.4539   -1.1603 H   0  0  0  1  0  0  0  0  0  0  0  0
   -3.1787    3.1842   -0.1338 C   0  0  0  1  0  0  0  0  0  0  0  0
   -2.3399    3.5218    0.4383 H   0  0  0  1  0  0  0  0  0  0  0  0
   -8.4381    4.4097   -6.4795 N   0  0  0  1  0  0  0  0  0  0  0  0
  -10.4654    4.5690   -3.7216 C   0  0  0  1  0  0  0  0  0  0  0  0
  -11.7286    3.7336   -3.6462 C   0  0  0  1  0  0  0  0  0  0  0  0
  -10.4999    5.7818   -3.5932 O   0  0  0  1  0  0  0  0  0  0  0  0
   -8.1518    4.7091   -7.8746 C   0  0  0  1  0  0  0  0  0  0  0  0
    0.8690    3.9961    1.3360 O   0  0  0  1  0  0  0  0  0  0  0  0
   -7.0923    6.0390   -5.6918 O   0  0  0  1  0  0  0  0  0  0  0  0
   -9.3282    3.8887   -3.9358 N   0  0  0  1  0  0  0  0  0  0  0  0
    0.7467   -2.9511    2.1403 O   0  5  0  1  0  0  0  0  0  0  0  0
   -4.4697    1.0422   -0.2046 N   0  0  0  1  0  0  0  0  0  0  0  0
    1.1329   -3.3734   -0.0613 O   0  0  0  1  0  0  0  0  0  0  0  0
   -6.9997    2.9979   -2.3191 C   0  0  0  1  0  0  0  0  0  0  0  0
   -6.9269    3.4971   -3.7539 C   0  0  0  1  0  0  0  0  0  0  0  0
   -2.3167    0.7594    0.2696 C   0  0  0  1  0  0  0  0  0  0  0  0
   -5.8154    2.0999   -2.0003 C   0  0  0  1  0  0  0  0  0  0  0  0
   -2.9357   -0.4991    0.2604 C   0  0  0  1  0  0  0  0  0  0  0  0
    1.5760    1.7919    1.8809 C   0  0  0  1  0  0  0  0  0  0  0  0
   -8.0226    4.5101   -4.1008 C   0  0  0  1  0  0  0  0  0  0  0  0
   -5.7216    1.7258   -0.5309 C   0  0  0  1  0  0  0  0  0  0  0  0
   -2.3218   -1.8324    0.6166 C   0  0  0  1  0  0  0  0  0  0  0  0
   -7.7811    5.0491   -5.5077 C   0  0  0  1  0  0  0  0  0  0  0  0
    0.9956    2.6816    0.7787 C   0  0  0  1  0  0  0  0  0  0  0  0
    2.7173    2.3994    2.6785 C   0  0  0  1  0  0  0  0  0  0  0  0
   -0.9162    1.0706    0.5293 C   0  0  0  1  0  0  0  0  0  0  0  0
    3.9669    2.6388    1.8531 C   0  0  0  1  0  0  0  0  0  0  0  0
   -0.3263    2.2088    0.2625 C   0  0  0  1  0  0  0  0  0  0  0  0
   -3.2927    1.7029   -0.0207 C   0  0  0  1  0  0  0  0  0  0  0  0
    5.1348    3.1381    2.6671 C   0  0  0  1  0  0  0  0  0  0  0  0
   -4.2716   -0.3100   -0.0358 C   0  0  0  1  0  0  0  0  0  0  0  0
   -3.2823   -2.9790    0.6182 C   0  0  0  1  0  0  0  0  0  0  0  0
   -3.0705   -4.1915    0.1530 C   0  0  0  1  0  0  0  0  0  0  0  0
   -1.9283   -4.5352   -0.7495 C   0  0  0  1  0  0  0  0  0  0  0  0
    6.3469    3.5853    1.8664 C   0  0  0  1  0  0  0  0  0  0  0  0
   -0.8921   -5.4272   -0.0853 C   0  0  0  1  0  0  0  0  0  0  0  0
   -0.3124   -4.8325    1.1877 C   0  0  0  1  0  0  0  0  0  0  0  0
    0.5920   -3.6644    0.9928 C   0  0  0  1  0  0  0  0  0  0  0  0
   -9.1143    3.7376   -6.2525 H   0  0  0  1  0  0  0  0  0  0  0  0
  -12.4765    4.2657   -3.0964 H   0  0  0  1  0  0  0  0  0  0  0  0
  -11.5149    2.8081   -3.1536 H   0  0  0  1  0  0  0  0  0  0  0  0
  -12.0857    3.5374   -4.6356 H   0  0  0  1  0  0  0  0  0  0  0  0
   -7.8487    5.7312   -7.9656 H   0  0  0  1  0  0  0  0  0  0  0  0
   -9.0308    4.5444   -8.4622 H   0  0  0  1  0  0  0  0  0  0  0  0
   -7.3655    4.0718   -8.2218 H   0  0  0  1  0  0  0  0  0  0  0  0
    1.0156    3.9578    2.2839 H   0  0  0  1  0  0  0  0  0  0  0  0
   -9.3804    2.9113   -3.9841 H   0  0  0  1  0  0  0  0  0  0  0  0
   -7.9056    2.4443   -2.1857 H   0  0  0  1  0  0  0  0  0  0  0  0
   -6.9927    3.8368   -1.6549 H   0  0  0  1  0  0  0  0  0  0  0  0
   -7.0210    2.6574   -4.4104 H   0  0  0  1  0  0  0  0  0  0  0  0
   -5.9750    3.9624   -3.9034 H   0  0  0  1  0  0  0  0  0  0  0  0
   -4.9175    2.6113   -2.2782 H   0  0  0  1  0  0  0  0  0  0  0  0
   -5.9069    1.2014   -2.5740 H   0  0  0  1  0  0  0  0  0  0  0  0
    1.9347    0.8932    1.4243 H   0  0  0  1  0  0  0  0  0  0  0  0
    0.7865    1.5553    2.5633 H   0  0  0  1  0  0  0  0  0  0  0  0
   -7.9410    5.3285   -3.4164 H   0  0  0  1  0  0  0  0  0  0  0  0
   -5.7875    2.6186    0.0551 H   0  0  0  1  0  0  0  0  0  0  0  0
   -6.5387    1.0787   -0.2890 H   0  0  0  1  0  0  0  0  0  0  0  0
   -1.8954   -1.7528    1.5947 H   0  0  0  1  0  0  0  0  0  0  0  0
   -1.5499   -2.0447   -0.0933 H   0  0  0  1  0  0  0  0  0  0  0  0
    1.6899    2.7030   -0.0352 H   0  0  0  1  0  0  0  0  0  0  0  0
    2.9625    1.7346    3.4802 H   0  0  0  1  0  0  0  0  0  0  0  0
    2.3905    3.3364    3.0787 H   0  0  0  1  0  0  0  0  0  0  0  0
   -0.3360    0.3247    0.9636 H   0  0  0  1  0  0  0  0  0  0  0  0
    3.7424    3.3656    1.1006 H   0  0  0  1  0  0  0  0  0  0  0  0
    4.2474    1.7173    1.3872 H   0  0  0  1  0  0  0  0  0  0  0  0
   -0.8317    2.8541   -0.3776 H   0  0  0  1  0  0  0  0  0  0  0  0
    5.4438    2.3480    3.3191 H   0  0  0  1  0  0  0  0  0  0  0  0
    4.7989    3.9707    3.2491 H   0  0  0  1  0  0  0  0  0  0  0  0
   -4.2193   -2.7983    1.0320 H   0  0  0  1  0  0  0  0  0  0  0  0
   -3.7297   -4.9481    0.4263 H   0  0  0  1  0  0  0  0  0  0  0  0
   -1.4508   -3.6278   -1.0553 H   0  0  0  1  0  0  0  0  0  0  0  0
   -2.3141   -5.0429   -1.6088 H   0  0  0  1  0  0  0  0  0  0  0  0
    6.0331    4.2347    1.0760 H   0  0  0  1  0  0  0  0  0  0  0  0
    6.8356    2.7287    1.4511 H   0  0  0  1  0  0  0  0  0  0  0  0
    7.0254    4.1073    2.5083 H   0  0  0  1  0  0  0  0  0  0  0  0
   -0.0929   -5.5921   -0.7773 H   0  0  0  1  0  0  0  0  0  0  0  0
   -1.3539   -6.3616    0.1565 H   0  0  0  1  0  0  0  0  0  0  0  0
    0.2418   -5.5992    1.6876 H   0  0  0  1  0  0  0  0  0  0  0  0
   -1.1271   -4.5194    1.8066 H   0  0  0  1  0  0  0  0  0  0  0  0
  1 34  1  0  0  0  0
  2  4  1  0  0  0  0
  3  4  1  0  0  0  0
  4  5  1  0  0  0  0
  4 32  1  0  0  0  0
  6 10  1  0  0  0  0
  6 26  1  0  0  0  0
  6 42  1  0  0  0  0
  7  8  1  0  0  0  0
  7  9  2  0  0  0  0
  7 13  1  0  0  0  0
  8 43  1  0  0  0  0
  8 44  1  0  0  0  0
  8 45  1  0  0  0  0
 10 46  1  0  0  0  0
 10 47  1  0  0  0  0
 10 48  1  0  0  0  0
 11 27  1  0  0  0  0
 11 49  1  0  0  0  0
 12 26  2  0  0  0  0
 13 23  1  0  0  0  0
 13 50  1  0  0  0  0
 14 41  1  0  0  0  0
 15 24  1  0  0  0  0
 15 32  4  0  0  0  0
 15 34  4  0  0  0  0
 16 41  2  0  0  0  0
 17 18  1  0  0  0  0
 17 20  1  0  0  0  0
 17 51  1  0  0  0  0
 17 52  1  0  0  0  0
 18 23  1  0  0  0  0
 18 53  1  0  0  0  0
 18 54  1  0  0  0  0
 19 21  4  0  0  0  0
 19 29  1  0  0  0  0
 19 32  4  0  0  0  0
 20 24  1  0  0  0  0
 20 55  1  0  0  0  0
 20 56  1  0  0  0  0
 21 25  1  0  0  0  0
 21 34  4  0  0  0  0
 22 27  1  0  0  0  0
 22 28  1  0  0  0  0
 22 57  1  0  0  0  0
 22 58  1  0  0  0  0
 23 26  1  0  0  0  0
 23 59  1  0  0  0  0
 24 60  1  0  0  0  0
 24 61  1  0  0  0  0
 25 35  1  0  0  0  0
 25 62  1  0  0  0  0
 25 63  1  0  0  0  0
 27 31  1  0  0  0  0
 27 64  1  0  0  0  0
 28 30  1  0  0  0  0
 28 65  1  0  0  0  0
 28 66  1  0  0  0  0
 29 31  2  0  0  0  0
 29 67  1  0  0  0  0
 30 33  1  0  0  0  0
 30 68  1  0  0  0  0
 30 69  1  0  0  0  0
 31 70  1  0  0  0  0
 33 38  1  0  0  0  0
 33 71  1  0  0  0  0
 33 72  1  0  0  0  0
 35 36  2  0  0  0  0
 35 73  1  0  0  0  0
 36 37  1  0  0  0  0
 36 74  1  0  0  0  0
 37 39  1  0  0  0  0
 37 75  1  0  0  0  0
 37 76  1  0  0  0  0
 38 77  1  0  0  0  0
 38 78  1  0  0  0  0
 38 79  1  0  0  0  0
 39 40  1  0  0  0  0
 39 80  1  0  0  0  0
 39 81  1  0  0  0  0
 40 41  1  0  0  0  0
 40 82  1  0  0  0  0
 40 83  1  0  0  0  0
M  END
> <ConfClashScore>
0 

> <ConfOneFourInteractionScore>
-0.988166 

> <ConfScore>
-0.022755 

> <ConfScorePBest>
0.00564082 

> <ConfTolerance>
1.72347 

$$$$
9548876
  PyMOL2.2          3D                             0

 83 83  0  0  0  0  0  0  0  0999 V2000
   -5.0333   -1.0341   -0.0993 H   0  0  0  1  0  0  0  0  0  0  0  0
   -4.0352    3.6496    0.2595 H   0  0  0  1  0  0  0  0  0  0  0  0
   -3.0608    3.4457   -1.1763 H   0  0  0  1  0  0  0  0  0  0  0  0
   -3.1634    3.1793   -0.1451 C   0  0  0  1  0  0  0  0  0  0  0  0
   -2.2994    3.5049    0.3956 H   0  0  0  1  0  0  0  0  0  0  0  0
   -7.8022    2.0269    6.0139 N   0  0  0  1  0  0  0  0  0  0  0  0
   -9.1488   -1.3521    3.9679 C   0  0  0  1  0  0  0  0  0  0  0  0
  -10.1651   -2.2745    3.3233 C   0  0  0  1  0  0  0  0  0  0  0  0
   -8.6138   -1.6500    5.0350 O   0  0  0  1  0  0  0  0  0  0  0  0
   -8.2013    2.8030    7.1785 C   0  0  0  1  0  0  0  0  0  0  0  0
    1.6974    1.2007    1.2776 O   0  0  0  1  0  0  0  0  0  0  0  0
   -9.8592    1.4569    5.2857 O   0  0  0  1  0  0  0  0  0  0  0  0
   -8.8516   -0.2033    3.3401 N   0  0  0  1  0  0  0  0  0  0  0  0
   -0.9075   -7.8009    3.4884 O   0  5  0  1  0  0  0  0  0  0  0  0
   -4.4820    1.0536   -0.1991 N   0  0  0  1  0  0  0  0  0  0  0  0
   -0.2371   -5.9008    2.4679 O   0  0  0  1  0  0  0  0  0  0  0  0
   -6.7051    1.3057    1.8022 C   0  0  0  1  0  0  0  0  0  0  0  0
   -7.5442    1.8667    2.9234 C   0  0  0  1  0  0  0  0  0  0  0  0
   -2.3297    0.7453    0.2625 C   0  0  0  1  0  0  0  0  0  0  0  0
   -6.4208    2.3138    0.6993 C   0  0  0  1  0  0  0  0  0  0  0  0
   -2.9647   -0.5052    0.2623 C   0  0  0  1  0  0  0  0  0  0  0  0
    2.0647    1.5455   -1.1364 C   0  0  0  1  0  0  0  0  0  0  0  0
   -7.9910    0.8079    3.9356 C   0  0  0  1  0  0  0  0  0  0  0  0
   -5.7547    1.7002   -0.5204 C   0  0  0  1  0  0  0  0  0  0  0  0
   -2.2054   -1.7853    0.5445 C   0  0  0  1  0  0  0  0  0  0  0  0
   -8.6458    1.4398    5.1603 C   0  0  0  1  0  0  0  0  0  0  0  0
    1.3163    1.9742    0.1503 C   0  0  0  1  0  0  0  0  0  0  0  0
    1.8012    0.1031   -1.5341 C   0  0  0  1  0  0  0  0  0  0  0  0
   -0.9498    1.0536    0.6180 C   0  0  0  1  0  0  0  0  0  0  0  0
    2.3521   -0.1815   -2.9094 C   0  0  0  1  0  0  0  0  0  0  0  0
   -0.1682    1.8953   -0.0154 C   0  0  0  1  0  0  0  0  0  0  0  0
   -3.2955    1.7000   -0.0253 C   0  0  0  1  0  0  0  0  0  0  0  0
    2.1705   -1.6069   -3.4049 C   0  0  0  1  0  0  0  0  0  0  0  0
   -4.2999   -0.3003   -0.0262 C   0  0  0  1  0  0  0  0  0  0  0  0
   -2.1751   -2.6981   -0.6401 C   0  0  0  1  0  0  0  0  0  0  0  0
   -2.0332   -3.9985   -0.5799 C   0  0  0  1  0  0  0  0  0  0  0  0
   -2.1825   -4.8719    0.6371 C   0  0  0  1  0  0  0  0  0  0  0  0
    2.4176   -1.7624   -4.8966 C   0  0  0  1  0  0  0  0  0  0  0  0
   -1.9476   -6.3317    0.2849 C   0  0  0  1  0  0  0  0  0  0  0  0
   -2.0506   -7.2079    1.5227 C   0  0  0  1  0  0  0  0  0  0  0  0
   -0.9787   -6.8689    2.5006 C   0  0  0  1  0  0  0  0  0  0  0  0
   -6.8424    1.9275    5.8429 H   0  0  0  1  0  0  0  0  0  0  0  0
  -10.6938   -2.8105    4.0836 H   0  0  0  1  0  0  0  0  0  0  0  0
   -9.6612   -2.9681    2.6831 H   0  0  0  1  0  0  0  0  0  0  0  0
  -10.8574   -1.6957    2.7483 H   0  0  0  1  0  0  0  0  0  0  0  0
   -8.2696    2.1592    8.0304 H   0  0  0  1  0  0  0  0  0  0  0  0
   -9.1537    3.2553    6.9961 H   0  0  0  1  0  0  0  0  0  0  0  0
   -7.4739    3.5652    7.3652 H   0  0  0  1  0  0  0  0  0  0  0  0
    2.6549    1.1462    1.3200 H   0  0  0  1  0  0  0  0  0  0  0  0
   -9.2272   -0.0401    2.4497 H   0  0  0  1  0  0  0  0  0  0  0  0
   -7.2229    0.4726    1.3750 H   0  0  0  1  0  0  0  0  0  0  0  0
   -5.7720    0.9759    2.2090 H   0  0  0  1  0  0  0  0  0  0  0  0
   -8.4158    2.3208    2.5003 H   0  0  0  1  0  0  0  0  0  0  0  0
   -6.9699    2.6079    3.4389 H   0  0  0  1  0  0  0  0  0  0  0  0
   -5.7769    3.0731    1.0915 H   0  0  0  1  0  0  0  0  0  0  0  0
   -7.3474    2.7536    0.3946 H   0  0  0  1  0  0  0  0  0  0  0  0
    3.1154    1.6661   -0.9739 H   0  0  0  1  0  0  0  0  0  0  0  0
    1.7520    2.1811   -1.9384 H   0  0  0  1  0  0  0  0  0  0  0  0
   -7.1043    0.3170    4.2785 H   0  0  0  1  0  0  0  0  0  0  0  0
   -6.4141    0.9695   -0.9400 H   0  0  0  1  0  0  0  0  0  0  0  0
   -5.5749    2.4731   -1.2382 H   0  0  0  1  0  0  0  0  0  0  0  0
   -2.6780   -2.2936    1.3588 H   0  0  0  1  0  0  0  0  0  0  0  0
   -1.2000   -1.5371    0.8136 H   0  0  0  1  0  0  0  0  0  0  0  0
    1.5660    2.9982    0.3346 H   0  0  0  1  0  0  0  0  0  0  0  0
    0.7459   -0.0733   -1.5355 H   0  0  0  1  0  0  0  0  0  0  0  0
    2.2712   -0.5474   -0.8264 H   0  0  0  1  0  0  0  0  0  0  0  0
   -0.5511    0.5644    1.4446 H   0  0  0  1  0  0  0  0  0  0  0  0
    3.4007    0.0313   -2.8949 H   0  0  0  1  0  0  0  0  0  0  0  0
    1.8645    0.4727   -3.6016 H   0  0  0  1  0  0  0  0  0  0  0  0
   -0.6138    2.5571   -0.6825 H   0  0  0  1  0  0  0  0  0  0  0  0
    1.1677   -1.9144   -3.1933 H   0  0  0  1  0  0  0  0  0  0  0  0
    2.8561   -2.2386   -2.8797 H   0  0  0  1  0  0  0  0  0  0  0  0
   -2.2742   -2.2679   -1.5817 H   0  0  0  1  0  0  0  0  0  0  0  0
   -1.7911   -4.4801   -1.4693 H   0  0  0  1  0  0  0  0  0  0  0  0
   -3.1716   -4.7605    1.0297 H   0  0  0  1  0  0  0  0  0  0  0  0
   -1.4691   -4.5699    1.3752 H   0  0  0  1  0  0  0  0  0  0  0  0
    2.9596   -2.6673   -5.0764 H   0  0  0  1  0  0  0  0  0  0  0  0
    2.9871   -0.9293   -5.2522 H   0  0  0  1  0  0  0  0  0  0  0  0
    1.4802   -1.8001   -5.4111 H   0  0  0  1  0  0  0  0  0  0  0  0
   -0.9711   -6.4375   -0.1396 H   0  0  0  1  0  0  0  0  0  0  0  0
   -2.6824   -6.6433   -0.4277 H   0  0  0  1  0  0  0  0  0  0  0  0
   -1.9518   -8.2339    1.2354 H   0  0  0  1  0  0  0  0  0  0  0  0
   -3.0051   -7.0558    1.9817 H   0  0  0  1  0  0  0  0  0  0  0  0
  1 34  1  0  0  0  0
  2  4  1  0  0  0  0
  3  4  1  0  0  0  0
  4  5  1  0  0  0  0
  4 32  1  0  0  0  0
  6 10  1  0  0  0  0
  6 26  1  0  0  0  0
  6 42  1  0  0  0  0
  7  8  1  0  0  0  0
  7  9  2  0  0  0  0
  7 13  1  0  0  0  0
  8 43  1  0  0  0  0
  8 44  1  0  0  0  0
  8 45  1  0  0  0  0
 10 46  1  0  0  0  0
 10 47  1  0  0  0  0
 10 48  1  0  0  0  0
 11 27  1  0  0  0  0
 11 49  1  0  0  0  0
 12 26  2  0  0  0  0
 13 23  1  0  0  0  0
 13 50  1  0  0  0  0
 14 41  1  0  0  0  0
 15 24  1  0  0  0  0
 15 32  4  0  0  0  0
 15 34  4  0  0  0  0
 16 41  2  0  0  0  0
 17 18  1  0  0  0  0
 17 20  1  0  0  0  0
 17 51  1  0  0  0  0
 17 52  1  0  0  0  0
 18 23  1  0  0  0  0
 18 53  1  0  0  0  0
 18 54  1  0  0  0  0
 19 21  4  0  0  0  0
 19 29  1  0  0  0  0
 19 32  4  0  0  0  0
 20 24  1  0  0  0  0
 20 55  1  0  0  0  0
 20 56  1  0  0  0  0
 21 25  1  0  0  0  0
 21 34  4  0  0  0  0
 22 27  1  0  0  0  0
 22 28  1  0  0  0  0
 22 57  1  0  0  0  0
 22 58  1  0  0  0  0
 23 26  1  0  0  0  0
 23 59  1  0  0  0  0
 24 60  1  0  0  0  0
 24 61  1  0  0  0  0
 25 35  1  0  0  0  0
 25 62  1  0  0  0  0
 25 63  1  0  0  0  0
 27 31  1  0  0  0  0
 27 64  1  0  0  0  0
 28 30  1  0  0  0  0
 28 65  1  0  0  0  0
 28 66  1  0  0  0  0
 29 31  2  0  0  0  0
 29 67  1  0  0  0  0
 30 33  1  0  0  0  0
 30 68  1  0  0  0  0
 30 69  1  0  0  0  0
 31 70  1  0  0  0  0
 33 38  1  0  0  0  0
 33 71  1  0  0  0  0
 33 72  1  0  0  0  0
 35 36  2  0  0  0  0
 35 73  1  0  0  0  0
 36 37  1  0  0  0  0
 36 74  1  0  0  0  0
 37 39  1  0  0  0  0
 37 75  1  0  0  0  0
 37 76  1  0  0  0  0
 38 77  1  0  0  0  0
 38 78  1  0  0  0  0
 38 79  1  0  0  0  0
 39 40  1  0  0  0  0
 39 80  1  0  0  0  0
 39 81  1  0  0  0  0
 40 41  1  0  0  0  0
 40 82  1  0  0  0  0
 40 83  1  0  0  0  0
M  END
> <ConfClashScore>
0 

> <ConfOneFourInteractionScore>
-0.991062 

> <ConfScore>
-0.0225147 

> <ConfScorePBest>
0.00561234 

> <ConfTolerance>
1.79307 

$$$$
9548876
  PyMOL2.2          3D                             0

 83 83  0  0  0  0  0  0  0  0999 V2000
   -5.0004   -1.0295   -0.1414 H   0  0  0  1  0  0  0  0  0  0  0  0
   -3.9372    3.6677    0.4377 H   0  0  0  1  0  0  0  0  0  0  0  0
   -3.3435    3.4172   -1.1863 H   0  0  0  1  0  0  0  0  0  0  0  0
   -3.1883    3.1836   -0.1537 C   0  0  0  1  0  0  0  0  0  0  0  0
   -2.2201    3.5248    0.1481 H   0  0  0  1  0  0  0  0  0  0  0  0
   -6.9959   -1.2086    4.9360 N   0  0  0  1  0  0  0  0  0  0  0  0
  -10.6152   -0.1611    4.5215 C   0  0  0  1  0  0  0  0  0  0  0  0
  -11.3135    0.2720    5.7959 C   0  0  0  1  0  0  0  0  0  0  0  0
  -11.2135   -0.7803    3.6457 O   0  0  0  1  0  0  0  0  0  0  0  0
   -5.9953   -2.1667    5.3816 C   0  0  0  1  0  0  0  0  0  0  0  0
    1.8504    2.0370   -1.1447 O   0  0  0  1  0  0  0  0  0  0  0  0
   -7.0250   -2.0404    2.8555 O   0  0  0  1  0  0  0  0  0  0  0  0
   -9.3256    0.1742    4.4237 N   0  0  0  1  0  0  0  0  0  0  0  0
   -0.6706   -8.0919   -1.3930 O   0  5  0  1  0  0  0  0  0  0  0  0
   -4.4574    1.0625   -0.1735 N   0  0  0  1  0  0  0  0  0  0  0  0
   -1.0475   -8.1525   -3.6356 O   0  0  0  1  0  0  0  0  0  0  0  0
   -7.1446    0.7095    1.3391 C   0  0  0  1  0  0  0  0  0  0  0  0
   -7.9059    1.0214    2.6216 C   0  0  0  1  0  0  0  0  0  0  0  0
   -2.3128    0.7510    0.3202 C   0  0  0  1  0  0  0  0  0  0  0  0
   -6.5316    1.9619    0.7633 C   0  0  0  1  0  0  0  0  0  0  0  0
   -2.9416   -0.5018    0.2736 C   0  0  0  1  0  0  0  0  0  0  0  0
    1.7279    3.5049    0.7099 C   0  0  0  1  0  0  0  0  0  0  0  0
   -8.5043   -0.2184    3.2882 C   0  0  0  1  0  0  0  0  0  0  0  0
   -5.7270    1.7122   -0.5010 C   0  0  0  1  0  0  0  0  0  0  0  0
   -2.2823   -1.8389    0.5166 C   0  0  0  1  0  0  0  0  0  0  0  0
   -7.4175   -1.2196    3.6682 C   0  0  0  1  0  0  0  0  0  0  0  0
    1.2650    2.1595    0.1424 C   0  0  0  1  0  0  0  0  0  0  0  0
    3.1904    3.7105    1.0734 C   0  0  0  1  0  0  0  0  0  0  0  0
   -0.9132    1.0444    0.6043 C   0  0  0  1  0  0  0  0  0  0  0  0
    3.3712    4.9872    1.8745 C   0  0  0  1  0  0  0  0  0  0  0  0
   -0.2257    2.0428    0.1034 C   0  0  0  1  0  0  0  0  0  0  0  0
   -3.2776    1.7090    0.0404 C   0  0  0  1  0  0  0  0  0  0  0  0
    4.8067    5.3440    2.2209 C   0  0  0  1  0  0  0  0  0  0  0  0
   -4.2721   -0.2949   -0.0343 C   0  0  0  1  0  0  0  0  0  0  0  0
   -0.9436   -1.9993   -0.1309 C   0  0  0  1  0  0  0  0  0  0  0  0
   -0.6271   -2.8283   -1.0940 C   0  0  0  1  0  0  0  0  0  0  0  0
   -1.5292   -3.8118   -1.7694 C   0  0  0  1  0  0  0  0  0  0  0  0
    4.9320    6.6326    3.0173 C   0  0  0  1  0  0  0  0  0  0  0  0
   -0.9002   -5.1727   -1.9366 C   0  0  0  1  0  0  0  0  0  0  0  0
   -1.8490   -6.2856   -2.3509 C   0  0  0  1  0  0  0  0  0  0  0  0
   -1.1619   -7.5914   -2.5583 C   0  0  0  1  0  0  0  0  0  0  0  0
   -7.3612   -0.5538    5.5671 H   0  0  0  1  0  0  0  0  0  0  0  0
  -10.5933    0.6677    6.4811 H   0  0  0  1  0  0  0  0  0  0  0  0
  -11.8015   -0.5708    6.2390 H   0  0  0  1  0  0  0  0  0  0  0  0
  -12.0386    1.0248    5.5667 H   0  0  0  1  0  0  0  0  0  0  0  0
   -6.4816   -3.0455    5.7505 H   0  0  0  1  0  0  0  0  0  0  0  0
   -5.4070   -1.7308    6.1619 H   0  0  0  1  0  0  0  0  0  0  0  0
   -5.3615   -2.4283    4.5602 H   0  0  0  1  0  0  0  0  0  0  0  0
    1.2075    1.6694   -1.7555 H   0  0  0  1  0  0  0  0  0  0  0  0
   -8.9186    0.7029    5.1414 H   0  0  0  1  0  0  0  0  0  0  0  0
   -7.8199    0.2886    0.6238 H   0  0  0  1  0  0  0  0  0  0  0  0
   -6.3680    0.0057    1.5544 H   0  0  0  1  0  0  0  0  0  0  0  0
   -8.7010    1.6982    2.3882 H   0  0  0  1  0  0  0  0  0  0  0  0
   -7.2325    1.4857    3.3114 H   0  0  0  1  0  0  0  0  0  0  0  0
   -5.8836    2.3915    1.4985 H   0  0  0  1  0  0  0  0  0  0  0  0
   -7.3181    2.6503    0.5344 H   0  0  0  1  0  0  0  0  0  0  0  0
    1.1605    3.6766    1.6007 H   0  0  0  1  0  0  0  0  0  0  0  0
    1.4826    4.2489   -0.0189 H   0  0  0  1  0  0  0  0  0  0  0  0
   -9.1365   -0.6930    2.5671 H   0  0  0  1  0  0  0  0  0  0  0  0
   -6.2879    1.0803   -1.1574 H   0  0  0  1  0  0  0  0  0  0  0  0
   -5.5311    2.6461   -0.9851 H   0  0  0  1  0  0  0  0  0  0  0  0
   -2.9292   -2.6033    0.1396 H   0  0  0  1  0  0  0  0  0  0  0  0
   -2.1595   -1.9635    1.5722 H   0  0  0  1  0  0  0  0  0  0  0  0
    1.6422    1.3866    0.7791 H   0  0  0  1  0  0  0  0  0  0  0  0
    3.7693    3.7746    0.1759 H   0  0  0  1  0  0  0  0  0  0  0  0
    3.5270    2.8794    1.6571 H   0  0  0  1  0  0  0  0  0  0  0  0
   -0.4176    0.4075    1.2603 H   0  0  0  1  0  0  0  0  0  0  0  0
    2.8278    4.8814    2.7902 H   0  0  0  1  0  0  0  0  0  0  0  0
    2.9591    5.7944    1.3058 H   0  0  0  1  0  0  0  0  0  0  0  0
   -0.7566    2.8106   -0.3551 H   0  0  0  1  0  0  0  0  0  0  0  0
    5.3584    5.4529    1.3105 H   0  0  0  1  0  0  0  0  0  0  0  0
    5.2247    4.5462    2.7986 H   0  0  0  1  0  0  0  0  0  0  0  0
   -0.1814   -1.3860    0.2219 H   0  0  0  1  0  0  0  0  0  0  0  0
    0.3583   -2.7998   -1.4251 H   0  0  0  1  0  0  0  0  0  0  0  0
   -1.7827   -3.4325   -2.7373 H   0  0  0  1  0  0  0  0  0  0  0  0
   -2.4181   -3.9171   -1.1831 H   0  0  0  1  0  0  0  0  0  0  0  0
    4.1645    6.6683    3.7620 H   0  0  0  1  0  0  0  0  0  0  0  0
    4.8289    7.4699    2.3590 H   0  0  0  1  0  0  0  0  0  0  0  0
    5.8906    6.6669    3.4914 H   0  0  0  1  0  0  0  0  0  0  0  0
   -0.4573   -5.4481   -1.0023 H   0  0  0  1  0  0  0  0  0  0  0  0
   -0.1382   -5.0941   -2.6837 H   0  0  0  1  0  0  0  0  0  0  0  0
   -2.3266   -6.0030   -3.2658 H   0  0  0  1  0  0  0  0  0  0  0  0
   -2.5867   -6.4068   -1.5854 H   0  0  0  1  0  0  0  0  0  0  0  0
  1 34  1  0  0  0  0
  2  4  1  0  0  0  0
  3  4  1  0  0  0  0
  4  5  1  0  0  0  0
  4 32  1  0  0  0  0
  6 10  1  0  0  0  0
  6 26  1  0  0  0  0
  6 42  1  0  0  0  0
  7  8  1  0  0  0  0
  7  9  2  0  0  0  0
  7 13  1  0  0  0  0
  8 43  1  0  0  0  0
  8 44  1  0  0  0  0
  8 45  1  0  0  0  0
 10 46  1  0  0  0  0
 10 47  1  0  0  0  0
 10 48  1  0  0  0  0
 11 27  1  0  0  0  0
 11 49  1  0  0  0  0
 12 26  2  0  0  0  0
 13 23  1  0  0  0  0
 13 50  1  0  0  0  0
 14 41  1  0  0  0  0
 15 24  1  0  0  0  0
 15 32  4  0  0  0  0
 15 34  4  0  0  0  0
 16 41  2  0  0  0  0
 17 18  1  0  0  0  0
 17 20  1  0  0  0  0
 17 51  1  0  0  0  0
 17 52  1  0  0  0  0
 18 23  1  0  0  0  0
 18 53  1  0  0  0  0
 18 54  1  0  0  0  0
 19 21  4  0  0  0  0
 19 29  1  0  0  0  0
 19 32  4  0  0  0  0
 20 24  1  0  0  0  0
 20 55  1  0  0  0  0
 20 56  1  0  0  0  0
 21 25  1  0  0  0  0
 21 34  4  0  0  0  0
 22 27  1  0  0  0  0
 22 28  1  0  0  0  0
 22 57  1  0  0  0  0
 22 58  1  0  0  0  0
 23 26  1  0  0  0  0
 23 59  1  0  0  0  0
 24 60  1  0  0  0  0
 24 61  1  0  0  0  0
 25 35  1  0  0  0  0
 25 62  1  0  0  0  0
 25 63  1  0  0  0  0
 27 31  1  0  0  0  0
 27 64  1  0  0  0  0
 28 30  1  0  0  0  0
 28 65  1  0  0  0  0
 28 66  1  0  0  0  0
 29 31  2  0  0  0  0
 29 67  1  0  0  0  0
 30 33  1  0  0  0  0
 30 68  1  0  0  0  0
 30 69  1  0  0  0  0
 31 70  1  0  0  0  0
 33 38  1  0  0  0  0
 33 71  1  0  0  0  0
 33 72  1  0  0  0  0
 35 36  2  0  0  0  0
 35 73  1  0  0  0  0
 36 37  1  0  0  0  0
 36 74  1  0  0  0  0
 37 39  1  0  0  0  0
 37 75  1  0  0  0  0
 37 76  1  0  0  0  0
 38 77  1  0  0  0  0
 38 78  1  0  0  0  0
 38 79  1  0  0  0  0
 39 40  1  0  0  0  0
 39 80  1  0  0  0  0
 39 81  1  0  0  0  0
 40 41  1  0  0  0  0
 40 82  1  0  0  0  0
 40 83  1  0  0  0  0
M  END
> <ConfClashScore>
0 

> <ConfOneFourInteractionScore>
-0.987923 

> <ConfScore>
-0.0201467 

> <ConfScorePBest>
0.00558386 

> <ConfTolerance>
1.89445 

$$$$
9548876
  PyMOL2.2          3D                             0

 83 83  0  0  0  0  0  0  0  0999 V2000
   -4.9921   -1.0414   -0.1170 H   0  0  0  1  0  0  0  0  0  0  0  0
   -3.9650    3.5683   -0.7606 H   0  0  0  1  0  0  0  0  0  0  0  0
   -2.2329    3.4509   -0.5642 H   0  0  0  1  0  0  0  0  0  0  0  0
   -3.1799    3.1973   -0.1355 C   0  0  0  1  0  0  0  0  0  0  0  0
   -3.2609    3.6364    0.8369 H   0  0  0  1  0  0  0  0  0  0  0  0
   -4.9950    3.6166   -7.1034 N   0  0  0  1  0  0  0  0  0  0  0  0
   -2.4453    5.0607   -4.9710 C   0  0  0  1  0  0  0  0  0  0  0  0
   -2.3886    6.4887   -4.5124 C   0  0  0  1  0  0  0  0  0  0  0  0
   -1.5314    4.4922   -5.5455 O   0  0  0  1  0  0  0  0  0  0  0  0
   -5.3448    3.5432   -8.5141 C   0  0  0  1  0  0  0  0  0  0  0  0
    1.9840    2.8627    0.2607 O   0  0  0  1  0  0  0  0  0  0  0  0
   -3.2048    2.2517   -7.2402 O   0  0  0  1  0  0  0  0  0  0  0  0
   -3.5815    4.4106   -4.7148 N   0  0  0  1  0  0  0  0  0  0  0  0
   -5.1547    1.6204    5.1347 O   0  5  0  1  0  0  0  0  0  0  0  0
   -4.4688    1.0540   -0.2057 N   0  0  0  1  0  0  0  0  0  0  0  0
   -5.1275   -0.5078    4.3045 O   0  0  0  1  0  0  0  0  0  0  0  0
   -4.8344    2.5558   -2.7606 C   0  0  0  1  0  0  0  0  0  0  0  0
   -4.9999    2.4107   -4.2646 C   0  0  0  1  0  0  0  0  0  0  0  0
   -2.3155    0.7734    0.2687 C   0  0  0  1  0  0  0  0  0  0  0  0
   -5.9498    1.8507   -2.0294 C   0  0  0  1  0  0  0  0  0  0  0  0
   -2.9333   -0.4857    0.2598 C   0  0  0  1  0  0  0  0  0  0  0  0
    1.1167    3.1544    2.4506 C   0  0  0  1  0  0  0  0  0  0  0  0
   -3.8444    3.0190   -5.0638 C   0  0  0  1  0  0  0  0  0  0  0  0
   -5.7481    1.6843   -0.5329 C   0  0  0  1  0  0  0  0  0  0  0  0
   -2.3181   -1.8183    0.6165 C   0  0  0  1  0  0  0  0  0  0  0  0
   -3.9971    2.9008   -6.5773 C   0  0  0  1  0  0  0  0  0  0  0  0
    1.0824    2.2748    1.1982 C   0  0  0  1  0  0  0  0  0  0  0  0
    2.5202    3.4207    2.9599 C   0  0  0  1  0  0  0  0  0  0  0  0
   -0.8973    0.9703    0.5430 C   0  0  0  1  0  0  0  0  0  0  0  0
    2.5500    4.2031    4.2618 C   0  0  0  1  0  0  0  0  0  0  0  0
   -0.2740    2.1467    0.5977 C   0  0  0  1  0  0  0  0  0  0  0  0
   -3.2925    1.7159   -0.0219 C   0  0  0  1  0  0  0  0  0  0  0  0
    3.9462    4.6481    4.6656 C   0  0  0  1  0  0  0  0  0  0  0  0
   -4.2694   -0.2980   -0.0365 C   0  0  0  1  0  0  0  0  0  0  0  0
   -1.1685   -1.8034    1.5732 C   0  0  0  1  0  0  0  0  0  0  0  0
   -1.0364   -1.0495    2.6384 C   0  0  0  1  0  0  0  0  0  0  0  0
   -2.1131   -0.2561    3.3264 C   0  0  0  1  0  0  0  0  0  0  0  0
    3.8989    5.4885    5.9312 C   0  0  0  1  0  0  0  0  0  0  0  0
   -2.3393   -0.6840    4.7673 C   0  0  0  1  0  0  0  0  0  0  0  0
   -3.2222    0.3172    5.4943 C   0  0  0  1  0  0  0  0  0  0  0  0
   -4.6006    0.3947    4.9338 C   0  0  0  1  0  0  0  0  0  0  0  0
   -5.5094    4.2118   -6.5190 H   0  0  0  1  0  0  0  0  0  0  0  0
   -3.3798    6.8892   -4.4679 H   0  0  0  1  0  0  0  0  0  0  0  0
   -1.8035    7.0613   -5.2014 H   0  0  0  1  0  0  0  0  0  0  0  0
   -1.9421    6.5337   -3.5411 H   0  0  0  1  0  0  0  0  0  0  0  0
   -6.3866    3.7548   -8.6353 H   0  0  0  1  0  0  0  0  0  0  0  0
   -5.1354    2.5607   -8.8826 H   0  0  0  1  0  0  0  0  0  0  0  0
   -4.7694    4.2601   -9.0618 H   0  0  0  1  0  0  0  0  0  0  0  0
    1.9469    3.8189    0.3368 H   0  0  0  1  0  0  0  0  0  0  0  0
   -4.2934    4.9053   -4.2576 H   0  0  0  1  0  0  0  0  0  0  0  0
   -4.8488    3.5946   -2.5046 H   0  0  0  1  0  0  0  0  0  0  0  0
   -3.8980    2.1287   -2.4678 H   0  0  0  1  0  0  0  0  0  0  0  0
   -5.9069    2.8986   -4.5547 H   0  0  0  1  0  0  0  0  0  0  0  0
   -5.0637    1.3688   -4.4999 H   0  0  0  1  0  0  0  0  0  0  0  0
   -6.0601    0.8762   -2.4575 H   0  0  0  1  0  0  0  0  0  0  0  0
   -6.8488    2.4110   -2.1805 H   0  0  0  1  0  0  0  0  0  0  0  0
    0.5623    2.6653    3.2240 H   0  0  0  1  0  0  0  0  0  0  0  0
    0.6562    4.0921    2.2193 H   0  0  0  1  0  0  0  0  0  0  0  0
   -2.9710    2.4581   -4.8040 H   0  0  0  1  0  0  0  0  0  0  0  0
   -5.7823    2.6498   -0.0729 H   0  0  0  1  0  0  0  0  0  0  0  0
   -6.5389    1.0761   -0.1459 H   0  0  0  1  0  0  0  0  0  0  0  0
   -1.9758   -2.2686   -0.2918 H   0  0  0  1  0  0  0  0  0  0  0  0
   -3.0881   -2.4237    1.0472 H   0  0  0  1  0  0  0  0  0  0  0  0
    1.4285    1.2982    1.4654 H   0  0  0  1  0  0  0  0  0  0  0  0
    3.0507    3.9785    2.2167 H   0  0  0  1  0  0  0  0  0  0  0  0
    3.0079    2.4814    3.1174 H   0  0  0  1  0  0  0  0  0  0  0  0
   -0.3228    0.1197    0.7104 H   0  0  0  1  0  0  0  0  0  0  0  0
    2.1533    3.5838    5.0390 H   0  0  0  1  0  0  0  0  0  0  0  0
    1.9362    5.0723    4.1494 H   0  0  0  1  0  0  0  0  0  0  0  0
   -0.7438    2.9913    0.2137 H   0  0  0  1  0  0  0  0  0  0  0  0
    4.3718    5.2291    3.8743 H   0  0  0  1  0  0  0  0  0  0  0  0
    4.5529    3.7842    4.8405 H   0  0  0  1  0  0  0  0  0  0  0  0
   -0.3893   -2.4622    1.3720 H   0  0  0  1  0  0  0  0  0  0  0  0
   -0.0838   -0.9943    3.0521 H   0  0  0  1  0  0  0  0  0  0  0  0
   -3.0277   -0.3831    2.7859 H   0  0  0  1  0  0  0  0  0  0  0  0
   -1.8334    0.7766    3.3177 H   0  0  0  1  0  0  0  0  0  0  0  0
    4.7428    5.2555    6.5464 H   0  0  0  1  0  0  0  0  0  0  0  0
    2.9976    5.2755    6.4670 H   0  0  0  1  0  0  0  0  0  0  0  0
    3.9231    6.5261    5.6712 H   0  0  0  1  0  0  0  0  0  0  0  0
   -1.3952   -0.7469    5.2669 H   0  0  0  1  0  0  0  0  0  0  0  0
   -2.8137   -1.6430    4.7781 H   0  0  0  1  0  0  0  0  0  0  0  0
   -2.7705    1.2845    5.4227 H   0  0  0  1  0  0  0  0  0  0  0  0
   -3.2884    0.0291    6.5226 H   0  0  0  1  0  0  0  0  0  0  0  0
  1 34  1  0  0  0  0
  2  4  1  0  0  0  0
  3  4  1  0  0  0  0
  4  5  1  0  0  0  0
  4 32  1  0  0  0  0
  6 10  1  0  0  0  0
  6 26  1  0  0  0  0
  6 42  1  0  0  0  0
  7  8  1  0  0  0  0
  7  9  2  0  0  0  0
  7 13  1  0  0  0  0
  8 43  1  0  0  0  0
  8 44  1  0  0  0  0
  8 45  1  0  0  0  0
 10 46  1  0  0  0  0
 10 47  1  0  0  0  0
 10 48  1  0  0  0  0
 11 27  1  0  0  0  0
 11 49  1  0  0  0  0
 12 26  2  0  0  0  0
 13 23  1  0  0  0  0
 13 50  1  0  0  0  0
 14 41  1  0  0  0  0
 15 24  1  0  0  0  0
 15 32  4  0  0  0  0
 15 34  4  0  0  0  0
 16 41  2  0  0  0  0
 17 18  1  0  0  0  0
 17 20  1  0  0  0  0
 17 51  1  0  0  0  0
 17 52  1  0  0  0  0
 18 23  1  0  0  0  0
 18 53  1  0  0  0  0
 18 54  1  0  0  0  0
 19 21  4  0  0  0  0
 19 29  1  0  0  0  0
 19 32  4  0  0  0  0
 20 24  1  0  0  0  0
 20 55  1  0  0  0  0
 20 56  1  0  0  0  0
 21 25  1  0  0  0  0
 21 34  4  0  0  0  0
 22 27  1  0  0  0  0
 22 28  1  0  0  0  0
 22 57  1  0  0  0  0
 22 58  1  0  0  0  0
 23 26  1  0  0  0  0
 23 59  1  0  0  0  0
 24 60  1  0  0  0  0
 24 61  1  0  0  0  0
 25 35  1  0  0  0  0
 25 62  1  0  0  0  0
 25 63  1  0  0  0  0
 27 31  1  0  0  0  0
 27 64  1  0  0  0  0
 28 30  1  0  0  0  0
 28 65  1  0  0  0  0
 28 66  1  0  0  0  0
 29 31  2  0  0  0  0
 29 67  1  0  0  0  0
 30 33  1  0  0  0  0
 30 68  1  0  0  0  0
 30 69  1  0  0  0  0
 31 70  1  0  0  0  0
 33 38  1  0  0  0  0
 33 71  1  0  0  0  0
 33 72  1  0  0  0  0
 35 36  2  0  0  0  0
 35 73  1  0  0  0  0
 36 37  1  0  0  0  0
 36 74  1  0  0  0  0
 37 39  1  0  0  0  0
 37 75  1  0  0  0  0
 37 76  1  0  0  0  0
 38 77  1  0  0  0  0
 38 78  1  0  0  0  0
 38 79  1  0  0  0  0
 39 40  1  0  0  0  0
 39 80  1  0  0  0  0
 39 81  1  0  0  0  0
 40 41  1  0  0  0  0
 40 82  1  0  0  0  0
 40 83  1  0  0  0  0
M  END
> <ConfClashScore>
0 

> <ConfOneFourInteractionScore>
-0.985562 

> <ConfScore>
-0.0174134 

> <ConfScorePBest>
0.00555537 

> <ConfTolerance>
1.8334 

$$$$
9548876
  PyMOL2.2          3D                             0

 83 83  0  0  0  0  0  0  0  0999 V2000
   -5.0358   -1.0139   -0.0542 H   0  0  0  1  0  0  0  0  0  0  0  0
   -2.9861    3.4504   -1.1386 H   0  0  0  1  0  0  0  0  0  0  0  0
   -2.4001    3.5534    0.5042 H   0  0  0  1  0  0  0  0  0  0  0  0
   -3.1887    3.1896   -0.1208 C   0  0  0  1  0  0  0  0  0  0  0  0
   -4.1161    3.6293    0.1819 H   0  0  0  1  0  0  0  0  0  0  0  0
  -11.5339    2.1273    0.3625 N   0  0  0  1  0  0  0  0  0  0  0  0
  -12.0130    5.0823    1.2602 C   0  0  0  1  0  0  0  0  0  0  0  0
  -12.7158    5.8346    2.3735 C   0  0  0  1  0  0  0  0  0  0  0  0
  -12.5252    4.9626    0.1481 O   0  0  0  1  0  0  0  0  0  0  0  0
  -12.3073    1.0720   -0.2748 C   0  0  0  1  0  0  0  0  0  0  0  0
    1.8153    1.9884    0.6209 O   0  0  0  1  0  0  0  0  0  0  0  0
  -10.6020    2.8977   -1.5413 O   0  0  0  1  0  0  0  0  0  0  0  0
  -10.8134    4.5666    1.5718 N   0  0  0  1  0  0  0  0  0  0  0  0
   -6.5365   -3.5572   -1.9084 O   0  5  0  1  0  0  0  0  0  0  0  0
   -4.4713    1.0703   -0.1538 N   0  0  0  1  0  0  0  0  0  0  0  0
   -7.8710   -5.1070   -0.8790 O   0  0  0  1  0  0  0  0  0  0  0  0
   -7.9003    2.7819   -0.0959 C   0  0  0  1  0  0  0  0  0  0  0  0
   -8.6961    3.4268    1.0285 C   0  0  0  1  0  0  0  0  0  0  0  0
   -2.3145    0.7449    0.2737 C   0  0  0  1  0  0  0  0  0  0  0  0
   -6.5658    2.2726    0.4136 C   0  0  0  1  0  0  0  0  0  0  0  0
   -2.9583   -0.5011    0.2780 C   0  0  0  1  0  0  0  0  0  0  0  0
    1.4899    2.5490    2.8957 C   0  0  0  1  0  0  0  0  0  0  0  0
  -10.0133    4.0006    0.5011 C   0  0  0  1  0  0  0  0  0  0  0  0
   -5.6813    1.7014   -0.6816 C   0  0  0  1  0  0  0  0  0  0  0  0
   -2.2551   -1.8127    0.5363 C   0  0  0  1  0  0  0  0  0  0  0  0
  -10.7250    2.9357   -0.3281 C   0  0  0  1  0  0  0  0  0  0  0  0
    1.1926    1.5186    1.8020 C   0  0  0  1  0  0  0  0  0  0  0  0
    2.8999    2.5710    3.3073 C   0  0  0  1  0  0  0  0  0  0  0  0
   -0.8924    0.9738    0.5102 C   0  0  0  1  0  0  0  0  0  0  0  0
    3.3647    3.5602    4.3650 C   0  0  0  1  0  0  0  0  0  0  0  0
   -0.2746    1.2913    1.6203 C   0  0  0  1  0  0  0  0  0  0  0  0
   -3.2778    1.7076    0.0046 C   0  0  0  1  0  0  0  0  0  0  0  0
    4.8377    3.3919    4.6441 C   0  0  0  1  0  0  0  0  0  0  0  0
   -4.2963   -0.2856    0.0108 C   0  0  0  1  0  0  0  0  0  0  0  0
   -2.8001   -2.5150    1.7094 C   0  0  0  1  0  0  0  0  0  0  0  0
   -3.6120   -3.5263    1.5129 C   0  0  0  1  0  0  0  0  0  0  0  0
   -4.2872   -3.8415    0.2160 C   0  0  0  1  0  0  0  0  0  0  0  0
    5.3319    4.2408    5.8030 C   0  0  0  1  0  0  0  0  0  0  0  0
   -4.8332   -5.2622    0.1574 C   0  0  0  1  0  0  0  0  0  0  0  0
   -5.5556   -5.5782   -1.1457 C   0  0  0  1  0  0  0  0  0  0  0  0
   -6.7806   -4.7419   -1.2868 C   0  0  0  1  0  0  0  0  0  0  0  0
  -11.6092    2.2492    1.3320 H   0  0  0  1  0  0  0  0  0  0  0  0
  -13.7049    6.0953    2.0593 H   0  0  0  1  0  0  0  0  0  0  0  0
  -12.1685    6.7249    2.6030 H   0  0  0  1  0  0  0  0  0  0  0  0
  -12.7702    5.2144    3.2437 H   0  0  0  1  0  0  0  0  0  0  0  0
  -11.8733    0.8343   -1.2235 H   0  0  0  1  0  0  0  0  0  0  0  0
  -13.3144    1.4043   -0.4168 H   0  0  0  1  0  0  0  0  0  0  0  0
  -12.3028    0.2015    0.3473 H   0  0  0  1  0  0  0  0  0  0  0  0
    1.3620    1.6289   -0.1451 H   0  0  0  1  0  0  0  0  0  0  0  0
  -10.4871    4.5720    2.4959 H   0  0  0  1  0  0  0  0  0  0  0  0
   -7.7291    3.5062   -0.8647 H   0  0  0  1  0  0  0  0  0  0  0  0
   -8.4594    1.9619   -0.4958 H   0  0  0  1  0  0  0  0  0  0  0  0
   -8.1171    4.2165    1.4599 H   0  0  0  1  0  0  0  0  0  0  0  0
   -8.9082    2.6905    1.7753 H   0  0  0  1  0  0  0  0  0  0  0  0
   -6.7490    1.5052    1.1364 H   0  0  0  1  0  0  0  0  0  0  0  0
   -6.0477    3.0851    0.8787 H   0  0  0  1  0  0  0  0  0  0  0  0
    0.8903    2.3181    3.7513 H   0  0  0  1  0  0  0  0  0  0  0  0
    1.2287    3.5192    2.5278 H   0  0  0  1  0  0  0  0  0  0  0  0
   -9.7576    4.7949   -0.1688 H   0  0  0  1  0  0  0  0  0  0  0  0
   -6.2400    0.9694   -1.2266 H   0  0  0  1  0  0  0  0  0  0  0  0
   -5.3949    2.4949   -1.3398 H   0  0  0  1  0  0  0  0  0  0  0  0
   -1.2160   -1.6193    0.7029 H   0  0  0  1  0  0  0  0  0  0  0  0
   -2.3684   -2.4393   -0.3235 H   0  0  0  1  0  0  0  0  0  0  0  0
    1.6386    0.5910    2.0944 H   0  0  0  1  0  0  0  0  0  0  0  0
    3.4762    2.7658    2.4270 H   0  0  0  1  0  0  0  0  0  0  0  0
    3.1300    1.5932    3.6757 H   0  0  0  1  0  0  0  0  0  0  0  0
   -0.2808    0.8697   -0.3244 H   0  0  0  1  0  0  0  0  0  0  0  0
    2.8152    3.3926    5.2677 H   0  0  0  1  0  0  0  0  0  0  0  0
    3.1850    4.5560    4.0172 H   0  0  0  1  0  0  0  0  0  0  0  0
   -0.8685    1.3967    2.4676 H   0  0  0  1  0  0  0  0  0  0  0  0
    5.3830    3.6669    3.7655 H   0  0  0  1  0  0  0  0  0  0  0  0
    5.0243    2.3635    4.8731 H   0  0  0  1  0  0  0  0  0  0  0  0
   -2.5470   -2.2161    2.6728 H   0  0  0  1  0  0  0  0  0  0  0  0
   -3.8005   -4.1558    2.3190 H   0  0  0  1  0  0  0  0  0  0  0  0
   -3.5788   -3.7160   -0.5761 H   0  0  0  1  0  0  0  0  0  0  0  0
   -5.0996   -3.1586    0.0801 H   0  0  0  1  0  0  0  0  0  0  0  0
    5.1159    5.2706    5.6091 H   0  0  0  1  0  0  0  0  0  0  0  0
    6.3885    4.1129    5.9133 H   0  0  0  1  0  0  0  0  0  0  0  0
    4.8395    3.9367    6.7030 H   0  0  0  1  0  0  0  0  0  0  0  0
   -5.5200   -5.3953    0.9670 H   0  0  0  1  0  0  0  0  0  0  0  0
   -4.0161   -5.9444    0.2664 H   0  0  0  1  0  0  0  0  0  0  0  0
   -5.8336   -6.6114   -1.1510 H   0  0  0  1  0  0  0  0  0  0  0  0
   -4.8993   -5.3806   -1.9674 H   0  0  0  1  0  0  0  0  0  0  0  0
  1 34  1  0  0  0  0
  2  4  1  0  0  0  0
  3  4  1  0  0  0  0
  4  5  1  0  0  0  0
  4 32  1  0  0  0  0
  6 10  1  0  0  0  0
  6 26  1  0  0  0  0
  6 42  1  0  0  0  0
  7  8  1  0  0  0  0
  7  9  2  0  0  0  0
  7 13  1  0  0  0  0
  8 43  1  0  0  0  0
  8 44  1  0  0  0  0
  8 45  1  0  0  0  0
 10 46  1  0  0  0  0
 10 47  1  0  0  0  0
 10 48  1  0  0  0  0
 11 27  1  0  0  0  0
 11 49  1  0  0  0  0
 12 26  2  0  0  0  0
 13 23  1  0  0  0  0
 13 50  1  0  0  0  0
 14 41  1  0  0  0  0
 15 24  1  0  0  0  0
 15 32  4  0  0  0  0
 15 34  4  0  0  0  0
 16 41  2  0  0  0  0
 17 18  1  0  0  0  0
 17 20  1  0  0  0  0
 17 51  1  0  0  0  0
 17 52  1  0  0  0  0
 18 23  1  0  0  0  0
 18 53  1  0  0  0  0
 18 54  1  0  0  0  0
 19 21  4  0  0  0  0
 19 29  1  0  0  0  0
 19 32  4  0  0  0  0
 20 24  1  0  0  0  0
 20 55  1  0  0  0  0
 20 56  1  0  0  0  0
 21 25  1  0  0  0  0
 21 34  4  0  0  0  0
 22 27  1  0  0  0  0
 22 28  1  0  0  0  0
 22 57  1  0  0  0  0
 22 58  1  0  0  0  0
 23 26  1  0  0  0  0
 23 59  1  0  0  0  0
 24 60  1  0  0  0  0
 24 61  1  0  0  0  0
 25 35  1  0  0  0  0
 25 62  1  0  0  0  0
 25 63  1  0  0  0  0
 27 31  1  0  0  0  0
 27 64  1  0  0  0  0
 28 30  1  0  0  0  0
 28 65  1  0  0  0  0
 28 66  1  0  0  0  0
 29 31  2  0  0  0  0
 29 67  1  0  0  0  0
 30 33  1  0  0  0  0
 30 68  1  0  0  0  0
 30 69  1  0  0  0  0
 31 70  1  0  0  0  0
 33 38  1  0  0  0  0
 33 71  1  0  0  0  0
 33 72  1  0  0  0  0
 35 36  2  0  0  0  0
 35 73  1  0  0  0  0
 36 37  1  0  0  0  0
 36 74  1  0  0  0  0
 37 39  1  0  0  0  0
 37 75  1  0  0  0  0
 37 76  1  0  0  0  0
 38 77  1  0  0  0  0
 38 78  1  0  0  0  0
 38 79  1  0  0  0  0
 39 40  1  0  0  0  0
 39 80  1  0  0  0  0
 39 81  1  0  0  0  0
 40 41  1  0  0  0  0
 40 82  1  0  0  0  0
 40 83  1  0  0  0  0
M  END
> <ConfClashScore>
0 

> <ConfOneFourInteractionScore>
-0.985008 

> <ConfScore>
-0.0156936 

> <ConfScorePBest>
0.00552689 

> <ConfTolerance>
1.97714 

$$$$
9548876
  PyMOL2.2          3D                             0

 83 83  0  0  0  0  0  0  0  0999 V2000
   -5.0156   -1.0315   -0.1096 H   0  0  0  1  0  0  0  0  0  0  0  0
   -3.5024    3.5001   -1.1003 H   0  0  0  1  0  0  0  0  0  0  0  0
   -2.1359    3.4690   -0.0121 H   0  0  0  1  0  0  0  0  0  0  0  0
   -3.1612    3.1889   -0.1351 C   0  0  0  1  0  0  0  0  0  0  0  0
   -3.7534    3.6603    0.6213 H   0  0  0  1  0  0  0  0  0  0  0  0
  -11.5852    0.8683    0.2305 N   0  0  0  1  0  0  0  0  0  0  0  0
  -12.5047    2.9487    2.4866 C   0  0  0  1  0  0  0  0  0  0  0  0
  -13.2903    2.7988    3.7591 C   0  0  0  1  0  0  0  0  0  0  0  0
  -12.9763    3.4567    1.4856 O   0  0  0  1  0  0  0  0  0  0  0  0
  -12.1619    0.0927   -0.8575 C   0  0  0  1  0  0  0  0  0  0  0  0
    1.7645    1.0794    1.0816 O   0  0  0  1  0  0  0  0  0  0  0  0
  -10.8447    2.5563   -1.0690 O   0  0  0  1  0  0  0  0  0  0  0  0
  -11.2431    2.5106    2.4469 N   0  0  0  1  0  0  0  0  0  0  0  0
    0.7161   -7.2165    2.6290 O   0  5  0  1  0  0  0  0  0  0  0  0
   -4.4708    1.0582   -0.2044 N   0  0  0  1  0  0  0  0  0  0  0  0
    0.4847   -6.3407    4.7157 O   0  0  0  1  0  0  0  0  0  0  0  0
   -8.0493    2.2362    0.3928 C   0  0  0  1  0  0  0  0  0  0  0  0
   -8.9942    2.1432    1.5754 C   0  0  0  1  0  0  0  0  0  0  0  0
   -2.3239    0.7586    0.2865 C   0  0  0  1  0  0  0  0  0  0  0  0
   -6.6783    1.6493    0.6707 C   0  0  0  1  0  0  0  0  0  0  0  0
   -2.9540   -0.4943    0.2792 C   0  0  0  1  0  0  0  0  0  0  0  0
    1.9638    1.5256   -1.3461 C   0  0  0  1  0  0  0  0  0  0  0  0
  -10.3939    2.6910    1.2790 C   0  0  0  1  0  0  0  0  0  0  0  0
   -5.7657    1.6492   -0.5438 C   0  0  0  1  0  0  0  0  0  0  0  0
   -2.2947   -1.8246    0.5569 C   0  0  0  1  0  0  0  0  0  0  0  0
  -10.9403    2.0197    0.0225 C   0  0  0  1  0  0  0  0  0  0  0  0
    1.3603    1.9189    0.0207 C   0  0  0  1  0  0  0  0  0  0  0  0
    1.5562    0.2215   -2.0043 C   0  0  0  1  0  0  0  0  0  0  0  0
   -0.9209    1.0589    0.5550 C   0  0  0  1  0  0  0  0  0  0  0  0
    2.3939   -0.1255   -3.2233 C   0  0  0  1  0  0  0  0  0  0  0  0
   -0.1367    1.8851   -0.0954 C   0  0  0  1  0  0  0  0  0  0  0  0
   -3.2893    1.7093   -0.0154 C   0  0  0  1  0  0  0  0  0  0  0  0
    1.9390   -1.3944   -3.9257 C   0  0  0  1  0  0  0  0  0  0  0  0
   -4.2860   -0.2948   -0.0274 C   0  0  0  1  0  0  0  0  0  0  0  0
   -1.1608   -1.7030    1.5247 C   0  0  0  1  0  0  0  0  0  0  0  0
   -1.1234   -2.2626    2.7104 C   0  0  0  1  0  0  0  0  0  0  0  0
   -2.1111   -3.2815    3.2128 C   0  0  0  1  0  0  0  0  0  0  0  0
    3.0409   -2.0672   -4.7278 C   0  0  0  1  0  0  0  0  0  0  0  0
   -1.5591   -4.5243    3.8706 C   0  0  0  1  0  0  0  0  0  0  0  0
   -0.9049   -5.5283    2.9305 C   0  0  0  1  0  0  0  0  0  0  0  0
    0.1539   -6.3798    3.5420 C   0  0  0  1  0  0  0  0  0  0  0  0
  -11.6731    0.5344    1.1477 H   0  0  0  1  0  0  0  0  0  0  0  0
  -13.7090    1.8153    3.8066 H   0  0  0  1  0  0  0  0  0  0  0  0
  -14.0779    3.5228    3.7791 H   0  0  0  1  0  0  0  0  0  0  0  0
  -12.6433    2.9516    4.5975 H   0  0  0  1  0  0  0  0  0  0  0  0
  -12.1231   -0.9484   -0.6137 H   0  0  0  1  0  0  0  0  0  0  0  0
  -11.6064    0.2695   -1.7548 H   0  0  0  1  0  0  0  0  0  0  0  0
  -13.1802    0.3867   -1.0041 H   0  0  0  1  0  0  0  0  0  0  0  0
    2.7205    0.9916    1.0744 H   0  0  0  1  0  0  0  0  0  0  0  0
  -10.8769    2.0518    3.2316 H   0  0  0  1  0  0  0  0  0  0  0  0
   -7.9306    3.2676    0.1337 H   0  0  0  1  0  0  0  0  0  0  0  0
   -8.4835    1.7088   -0.4307 H   0  0  0  1  0  0  0  0  0  0  0  0
   -8.5768    2.7005    2.3878 H   0  0  0  1  0  0  0  0  0  0  0  0
   -9.0849    1.1149    1.8570 H   0  0  0  1  0  0  0  0  0  0  0  0
   -6.8025    0.6394    1.0019 H   0  0  0  1  0  0  0  0  0  0  0  0
   -6.2136    2.2242    1.4443 H   0  0  0  1  0  0  0  0  0  0  0  0
    3.0253    1.4883   -1.2165 H   0  0  0  1  0  0  0  0  0  0  0  0
    1.7149    2.3089   -2.0312 H   0  0  0  1  0  0  0  0  0  0  0  0
  -10.3005    3.7380    1.0787 H   0  0  0  1  0  0  0  0  0  0  0  0
   -6.2199    1.0786   -1.3267 H   0  0  0  1  0  0  0  0  0  0  0  0
   -5.6184    2.6560   -0.8748 H   0  0  0  1  0  0  0  0  0  0  0  0
   -1.9209   -2.2224   -0.3634 H   0  0  0  1  0  0  0  0  0  0  0  0
   -3.0249   -2.4924    0.9642 H   0  0  0  1  0  0  0  0  0  0  0  0
    1.6573    2.9254    0.2300 H   0  0  0  1  0  0  0  0  0  0  0  0
    0.5329    0.2995   -2.3069 H   0  0  0  1  0  0  0  0  0  0  0  0
    1.6577   -0.5665   -1.2875 H   0  0  0  1  0  0  0  0  0  0  0  0
   -0.4913    0.5575    1.3585 H   0  0  0  1  0  0  0  0  0  0  0  0
    3.4091   -0.2557   -2.9114 H   0  0  0  1  0  0  0  0  0  0  0  0
    2.3349    0.6865   -3.9177 H   0  0  0  1  0  0  0  0  0  0  0  0
   -0.5850    2.5677   -0.7394 H   0  0  0  1  0  0  0  0  0  0  0  0
    1.1387   -1.1456   -4.5910 H   0  0  0  1  0  0  0  0  0  0  0  0
    1.5878   -2.0839   -3.1867 H   0  0  0  1  0  0  0  0  0  0  0  0
   -0.3408   -1.1322    1.2359 H   0  0  0  1  0  0  0  0  0  0  0  0
   -0.3540   -1.9815    3.3512 H   0  0  0  1  0  0  0  0  0  0  0  0
   -2.6996   -3.5964    2.3765 H   0  0  0  1  0  0  0  0  0  0  0  0
   -2.7393   -2.7929    3.9279 H   0  0  0  1  0  0  0  0  0  0  0  0
    2.6313   -2.8876   -5.2793 H   0  0  0  1  0  0  0  0  0  0  0  0
    3.7971   -2.4276   -4.0620 H   0  0  0  1  0  0  0  0  0  0  0  0
    3.4701   -1.3603   -5.4067 H   0  0  0  1  0  0  0  0  0  0  0  0
   -2.3658   -5.0184    4.3707 H   0  0  0  1  0  0  0  0  0  0  0  0
   -0.8268   -4.2195    4.5887 H   0  0  0  1  0  0  0  0  0  0  0  0
   -0.4643   -4.9842    2.1213 H   0  0  0  1  0  0  0  0  0  0  0  0
   -1.6700   -6.1736    2.5523 H   0  0  0  1  0  0  0  0  0  0  0  0
  1 34  1  0  0  0  0
  2  4  1  0  0  0  0
  3  4  1  0  0  0  0
  4  5  1  0  0  0  0
  4 32  1  0  0  0  0
  6 10  1  0  0  0  0
  6 26  1  0  0  0  0
  6 42  1  0  0  0  0
  7  8  1  0  0  0  0
  7  9  2  0  0  0  0
  7 13  1  0  0  0  0
  8 43  1  0  0  0  0
  8 44  1  0  0  0  0
  8 45  1  0  0  0  0
 10 46  1  0  0  0  0
 10 47  1  0  0  0  0
 10 48  1  0  0  0  0
 11 27  1  0  0  0  0
 11 49  1  0  0  0  0
 12 26  2  0  0  0  0
 13 23  1  0  0  0  0
 13 50  1  0  0  0  0
 14 41  1  0  0  0  0
 15 24  1  0  0  0  0
 15 32  4  0  0  0  0
 15 34  4  0  0  0  0
 16 41  2  0  0  0  0
 17 18  1  0  0  0  0
 17 20  1  0  0  0  0
 17 51  1  0  0  0  0
 17 52  1  0  0  0  0
 18 23  1  0  0  0  0
 18 53  1  0  0  0  0
 18 54  1  0  0  0  0
 19 21  4  0  0  0  0
 19 29  1  0  0  0  0
 19 32  4  0  0  0  0
 20 24  1  0  0  0  0
 20 55  1  0  0  0  0
 20 56  1  0  0  0  0
 21 25  1  0  0  0  0
 21 34  4  0  0  0  0
 22 27  1  0  0  0  0
 22 28  1  0  0  0  0
 22 57  1  0  0  0  0
 22 58  1  0  0  0  0
 23 26  1  0  0  0  0
 23 59  1  0  0  0  0
 24 60  1  0  0  0  0
 24 61  1  0  0  0  0
 25 35  1  0  0  0  0
 25 62  1  0  0  0  0
 25 63  1  0  0  0  0
 27 31  1  0  0  0  0
 27 64  1  0  0  0  0
 28 30  1  0  0  0  0
 28 65  1  0  0  0  0
 28 66  1  0  0  0  0
 29 31  2  0  0  0  0
 29 67  1  0  0  0  0
 30 33  1  0  0  0  0
 30 68  1  0  0  0  0
 30 69  1  0  0  0  0
 31 70  1  0  0  0  0
 33 38  1  0  0  0  0
 33 71  1  0  0  0  0
 33 72  1  0  0  0  0
 35 36  2  0  0  0  0
 35 73  1  0  0  0  0
 36 37  1  0  0  0  0
 36 74  1  0  0  0  0
 37 39  1  0  0  0  0
 37 75  1  0  0  0  0
 37 76  1  0  0  0  0
 38 77  1  0  0  0  0
 38 78  1  0  0  0  0
 38 79  1  0  0  0  0
 39 40  1  0  0  0  0
 39 80  1  0  0  0  0
 39 81  1  0  0  0  0
 40 41  1  0  0  0  0
 40 82  1  0  0  0  0
 40 83  1  0  0  0  0
M  END
> <ConfClashScore>
0 

> <ConfOneFourInteractionScore>
-0.98339 

> <ConfScore>
-0.0156824 

> <ConfScorePBest>
0.00549841 

> <ConfTolerance>
1.69313 

$$$$
9548876
  PyMOL2.2          3D                             0

 83 83  0  0  0  0  0  0  0  0999 V2000
   -5.0167   -1.0300   -0.0710 H   0  0  0  1  0  0  0  0  0  0  0  0
   -4.1249    3.6132   -0.3665 H   0  0  0  1  0  0  0  0  0  0  0  0
   -2.4790    3.4292   -0.9227 H   0  0  0  1  0  0  0  0  0  0  0  0
   -3.1678    3.1923   -0.1390 C   0  0  0  1  0  0  0  0  0  0  0  0
   -2.8108    3.5973    0.7848 H   0  0  0  1  0  0  0  0  0  0  0  0
  -11.8931    4.3533    2.5652 N   0  0  0  1  0  0  0  0  0  0  0  0
   -9.3531    6.0131    3.0224 C   0  0  0  1  0  0  0  0  0  0  0  0
   -9.1585    7.5078    3.1876 C   0  0  0  1  0  0  0  0  0  0  0  0
   -9.2846    5.2501    3.9850 O   0  0  0  1  0  0  0  0  0  0  0  0
  -13.0929    3.8848    3.2427 C   0  0  0  1  0  0  0  0  0  0  0  0
    1.8885    2.8218   -0.2154 O   0  0  0  1  0  0  0  0  0  0  0  0
  -10.7269    2.4415    2.8329 O   0  0  0  1  0  0  0  0  0  0  0  0
   -9.6010    5.5920    1.7721 N   0  0  0  1  0  0  0  0  0  0  0  0
    0.7616   -3.9647   -5.4473 O   0  5  0  1  0  0  0  0  0  0  0  0
   -4.4766    1.0603   -0.1777 N   0  0  0  1  0  0  0  0  0  0  0  0
    0.8982   -1.7488   -5.9430 O   0  0  0  1  0  0  0  0  0  0  0  0
   -7.8427    2.8994    0.2631 C   0  0  0  1  0  0  0  0  0  0  0  0
   -8.4023    3.4115    1.5463 C   0  0  0  1  0  0  0  0  0  0  0  0
   -2.3179    0.7626    0.2601 C   0  0  0  1  0  0  0  0  0  0  0  0
   -6.5315    2.2962    0.5372 C   0  0  0  1  0  0  0  0  0  0  0  0
   -2.9468   -0.4910    0.2673 C   0  0  0  1  0  0  0  0  0  0  0  0
    1.0783    3.7631    1.7646 C   0  0  0  1  0  0  0  0  0  0  0  0
   -9.7367    4.1601    1.4912 C   0  0  0  1  0  0  0  0  0  0  0  0
   -5.7537    1.6492   -0.5819 C   0  0  0  1  0  0  0  0  0  0  0  0
   -2.2795   -1.8208    0.5277 C   0  0  0  1  0  0  0  0  0  0  0  0
  -10.8233    3.5731    2.3871 C   0  0  0  1  0  0  0  0  0  0  0  0
    1.0285    2.5193    0.8724 C   0  0  0  1  0  0  0  0  0  0  0  0
    2.4333    3.9839    2.4150 C   0  0  0  1  0  0  0  0  0  0  0  0
   -0.9225    1.0253    0.5931 C   0  0  0  1  0  0  0  0  0  0  0  0
    3.5857    3.9712    1.4252 C   0  0  0  1  0  0  0  0  0  0  0  0
   -0.3609    2.2034    0.4248 C   0  0  0  1  0  0  0  0  0  0  0  0
   -3.2915    1.7125   -0.0173 C   0  0  0  1  0  0  0  0  0  0  0  0
    4.9373    4.1180    2.0790 C   0  0  0  1  0  0  0  0  0  0  0  0
   -4.2861   -0.2927   -0.0063 C   0  0  0  1  0  0  0  0  0  0  0  0
   -2.8439   -2.9481   -0.2319 C   0  0  0  1  0  0  0  0  0  0  0  0
   -2.0937   -3.5336   -1.1346 C   0  0  0  1  0  0  0  0  0  0  0  0
   -0.7803   -3.0117   -1.6243 C   0  0  0  1  0  0  0  0  0  0  0  0
    6.1324    3.8583    1.1763 C   0  0  0  1  0  0  0  0  0  0  0  0
   -0.6403   -3.0760   -3.1396 C   0  0  0  1  0  0  0  0  0  0  0  0
    0.6386   -2.4357   -3.6542 C   0  0  0  1  0  0  0  0  0  0  0  0
    0.7799   -2.6442   -5.1228 C   0  0  0  1  0  0  0  0  0  0  0  0
  -11.8691    5.2731    2.2278 H   0  0  0  1  0  0  0  0  0  0  0  0
   -9.0440    7.7405    4.2257 H   0  0  0  1  0  0  0  0  0  0  0  0
  -10.0116    8.0235    2.7987 H   0  0  0  1  0  0  0  0  0  0  0  0
   -8.2825    7.8142    2.6550 H   0  0  0  1  0  0  0  0  0  0  0  0
  -13.7695    3.4702    2.5249 H   0  0  0  1  0  0  0  0  0  0  0  0
  -13.5630    4.7054    3.7432 H   0  0  0  1  0  0  0  0  0  0  0  0
  -12.8282    3.1344    3.9580 H   0  0  0  1  0  0  0  0  0  0  0  0
    2.0471    3.7682   -0.2448 H   0  0  0  1  0  0  0  0  0  0  0  0
   -9.6914    6.2435    1.0456 H   0  0  0  1  0  0  0  0  0  0  0  0
   -7.7312    3.7067   -0.4302 H   0  0  0  1  0  0  0  0  0  0  0  0
   -8.5002    2.1627   -0.1492 H   0  0  0  1  0  0  0  0  0  0  0  0
   -7.6788    4.0783    1.9669 H   0  0  0  1  0  0  0  0  0  0  0  0
   -8.5337    2.5713    2.1957 H   0  0  0  1  0  0  0  0  0  0  0  0
   -6.6867    1.5434    1.2816 H   0  0  0  1  0  0  0  0  0  0  0  0
   -5.9118    3.0714    0.9369 H   0  0  0  1  0  0  0  0  0  0  0  0
    0.3449    3.6566    2.5364 H   0  0  0  1  0  0  0  0  0  0  0  0
    0.8455    4.6192    1.1665 H   0  0  0  1  0  0  0  0  0  0  0  0
  -10.0919    4.0689    0.4860 H   0  0  0  1  0  0  0  0  0  0  0  0
   -6.3591    0.8745   -1.0041 H   0  0  0  1  0  0  0  0  0  0  0  0
   -5.5570    2.3937   -1.3248 H   0  0  0  1  0  0  0  0  0  0  0  0
   -2.3714   -2.0418    1.5706 H   0  0  0  1  0  0  0  0  0  0  0  0
   -1.2445   -1.7307    0.2715 H   0  0  0  1  0  0  0  0  0  0  0  0
    1.4113    1.6866    1.4248 H   0  0  0  1  0  0  0  0  0  0  0  0
    2.5951    3.2081    3.1339 H   0  0  0  1  0  0  0  0  0  0  0  0
    2.4216    4.9325    2.9099 H   0  0  0  1  0  0  0  0  0  0  0  0
   -0.3476    0.2496    0.9795 H   0  0  0  1  0  0  0  0  0  0  0  0
    3.4516    4.7804    0.7380 H   0  0  0  1  0  0  0  0  0  0  0  0
    3.5654    3.0433    0.8927 H   0  0  0  1  0  0  0  0  0  0  0  0
   -0.9118    2.9514   -0.0429 H   0  0  0  1  0  0  0  0  0  0  0  0
    4.9851    3.4282    2.8956 H   0  0  0  1  0  0  0  0  0  0  0  0
    5.0166    5.1180    2.4511 H   0  0  0  1  0  0  0  0  0  0  0  0
   -3.8161   -3.2733   -0.0567 H   0  0  0  1  0  0  0  0  0  0  0  0
   -2.4378   -4.4274   -1.5401 H   0  0  0  1  0  0  0  0  0  0  0  0
    0.0027   -3.5938   -1.1849 H   0  0  0  1  0  0  0  0  0  0  0  0
   -0.6829   -1.9916   -1.3162 H   0  0  0  1  0  0  0  0  0  0  0  0
    7.0355    4.0700    1.7097 H   0  0  0  1  0  0  0  0  0  0  0  0
    6.0715    4.4890    0.3141 H   0  0  0  1  0  0  0  0  0  0  0  0
    6.1315    2.8331    0.8698 H   0  0  0  1  0  0  0  0  0  0  0  0
   -1.4740   -2.5694   -3.5791 H   0  0  0  1  0  0  0  0  0  0  0  0
   -0.6490   -4.1036   -3.4378 H   0  0  0  1  0  0  0  0  0  0  0  0
    1.4767   -2.8756   -3.1552 H   0  0  0  1  0  0  0  0  0  0  0  0
    0.6121   -1.3857   -3.4499 H   0  0  0  1  0  0  0  0  0  0  0  0
  1 34  1  0  0  0  0
  2  4  1  0  0  0  0
  3  4  1  0  0  0  0
  4  5  1  0  0  0  0
  4 32  1  0  0  0  0
  6 10  1  0  0  0  0
  6 26  1  0  0  0  0
  6 42  1  0  0  0  0
  7  8  1  0  0  0  0
  7  9  2  0  0  0  0
  7 13  1  0  0  0  0
  8 43  1  0  0  0  0
  8 44  1  0  0  0  0
  8 45  1  0  0  0  0
 10 46  1  0  0  0  0
 10 47  1  0  0  0  0
 10 48  1  0  0  0  0
 11 27  1  0  0  0  0
 11 49  1  0  0  0  0
 12 26  2  0  0  0  0
 13 23  1  0  0  0  0
 13 50  1  0  0  0  0
 14 41  1  0  0  0  0
 15 24  1  0  0  0  0
 15 32  4  0  0  0  0
 15 34  4  0  0  0  0
 16 41  2  0  0  0  0
 17 18  1  0  0  0  0
 17 20  1  0  0  0  0
 17 51  1  0  0  0  0
 17 52  1  0  0  0  0
 18 23  1  0  0  0  0
 18 53  1  0  0  0  0
 18 54  1  0  0  0  0
 19 21  4  0  0  0  0
 19 29  1  0  0  0  0
 19 32  4  0  0  0  0
 20 24  1  0  0  0  0
 20 55  1  0  0  0  0
 20 56  1  0  0  0  0
 21 25  1  0  0  0  0
 21 34  4  0  0  0  0
 22 27  1  0  0  0  0
 22 28  1  0  0  0  0
 22 57  1  0  0  0  0
 22 58  1  0  0  0  0
 23 26  1  0  0  0  0
 23 59  1  0  0  0  0
 24 60  1  0  0  0  0
 24 61  1  0  0  0  0
 25 35  1  0  0  0  0
 25 62  1  0  0  0  0
 25 63  1  0  0  0  0
 27 31  1  0  0  0  0
 27 64  1  0  0  0  0
 28 30  1  0  0  0  0
 28 65  1  0  0  0  0
 28 66  1  0  0  0  0
 29 31  2  0  0  0  0
 29 67  1  0  0  0  0
 30 33  1  0  0  0  0
 30 68  1  0  0  0  0
 30 69  1  0  0  0  0
 31 70  1  0  0  0  0
 33 38  1  0  0  0  0
 33 71  1  0  0  0  0
 33 72  1  0  0  0  0
 35 36  2  0  0  0  0
 35 73  1  0  0  0  0
 36 37  1  0  0  0  0
 36 74  1  0  0  0  0
 37 39  1  0  0  0  0
 37 75  1  0  0  0  0
 37 76  1  0  0  0  0
 38 77  1  0  0  0  0
 38 78  1  0  0  0  0
 38 79  1  0  0  0  0
 39 40  1  0  0  0  0
 39 80  1  0  0  0  0
 39 81  1  0  0  0  0
 40 41  1  0  0  0  0
 40 82  1  0  0  0  0
 40 83  1  0  0  0  0
M  END
> <ConfClashScore>
0 

> <ConfOneFourInteractionScore>
-0.988174 

> <ConfScore>
-0.015295 

> <ConfScorePBest>
0.00546993 

> <ConfTolerance>
1.70636 

$$$$
9548876
  PyMOL2.2          3D                             0

 83 83  0  0  0  0  0  0  0  0999 V2000
   -5.0037   -1.0467   -0.1101 H   0  0  0  1  0  0  0  0  0  0  0  0
   -2.4857    3.4278   -0.9140 H   0  0  0  1  0  0  0  0  0  0  0  0
   -2.8282    3.5916    0.7914 H   0  0  0  1  0  0  0  0  0  0  0  0
   -3.1782    3.1862   -0.1349 C   0  0  0  1  0  0  0  0  0  0  0  0
   -4.1360    3.6025   -0.3678 H   0  0  0  1  0  0  0  0  0  0  0  0
  -11.1722    2.9292   -1.1869 N   0  0  0  1  0  0  0  0  0  0  0  0
  -10.7917    5.7203    0.7548 C   0  0  0  1  0  0  0  0  0  0  0  0
  -11.4380    5.9308    2.1103 C   0  0  0  1  0  0  0  0  0  0  0  0
  -10.8916    6.5537   -0.1305 O   0  0  0  1  0  0  0  0  0  0  0  0
  -12.0289    2.1411   -2.0603 C   0  0  0  1  0  0  0  0  0  0  0  0
    1.8591    1.2647    0.3585 O   0  0  0  1  0  0  0  0  0  0  0  0
   -9.6063    3.3644   -2.7506 O   0  0  0  1  0  0  0  0  0  0  0  0
  -10.1175    4.5766    0.6046 N   0  0  0  1  0  0  0  0  0  0  0  0
    2.4994   -4.7985    6.0588 O   0  5  0  1  0  0  0  0  0  0  0  0
   -4.4733    1.0466   -0.2044 N   0  0  0  1  0  0  0  0  0  0  0  0
    3.5146   -3.3560    4.6381 O   0  0  0  1  0  0  0  0  0  0  0  0
   -7.8767    2.4949    0.3814 C   0  0  0  1  0  0  0  0  0  0  0  0
   -7.8985    3.8512   -0.2789 C   0  0  0  1  0  0  0  0  0  0  0  0
   -2.3241    0.7615    0.2855 C   0  0  0  1  0  0  0  0  0  0  0  0
   -6.4987    1.9616    0.7343 C   0  0  0  1  0  0  0  0  0  0  0  0
   -2.9457   -0.4957    0.2780 C   0  0  0  1  0  0  0  0  0  0  0  0
    1.8487    1.3216    2.7700 C   0  0  0  1  0  0  0  0  0  0  0  0
   -9.3130    4.3531   -0.5894 C   0  0  0  1  0  0  0  0  0  0  0  0
   -5.7331    1.7377   -0.5453 C   0  0  0  1  0  0  0  0  0  0  0  0
   -2.2772   -1.8215    0.5550 C   0  0  0  1  0  0  0  0  0  0  0  0
  -10.0302    3.4771   -1.6122 C   0  0  0  1  0  0  0  0  0  0  0  0
    1.3767    0.5943    1.5051 C   0  0  0  1  0  0  0  0  0  0  0  0
    1.1921    2.6775    2.9655 C   0  0  0  1  0  0  0  0  0  0  0  0
   -0.9130    1.0168    0.5610 C   0  0  0  1  0  0  0  0  0  0  0  0
    1.5150    3.2318    4.3111 C   0  0  0  1  0  0  0  0  0  0  0  0
   -0.1169    0.5195    1.4740 C   0  0  0  1  0  0  0  0  0  0  0  0
   -3.2962    1.7057   -0.0157 C   0  0  0  1  0  0  0  0  0  0  0  0
    0.7399    4.4355    4.7751 C   0  0  0  1  0  0  0  0  0  0  0  0
   -4.2792   -0.3052   -0.0280 C   0  0  0  1  0  0  0  0  0  0  0  0
   -0.8397   -1.8905    0.1477 C   0  0  0  1  0  0  0  0  0  0  0  0
    0.1454   -2.2566    0.9326 C   0  0  0  1  0  0  0  0  0  0  0  0
    0.0353   -2.9639    2.2569 C   0  0  0  1  0  0  0  0  0  0  0  0
    1.1020    4.9538    6.1573 C   0  0  0  1  0  0  0  0  0  0  0  0
    1.3765   -3.1252    2.9604 C   0  0  0  1  0  0  0  0  0  0  0  0
    1.1880   -3.7042    4.3532 C   0  0  0  1  0  0  0  0  0  0  0  0
    2.5041   -3.9259    5.0156 C   0  0  0  1  0  0  0  0  0  0  0  0
  -11.4423    3.0628   -0.2544 H   0  0  0  1  0  0  0  0  0  0  0  0
  -11.0265    6.8049    2.5703 H   0  0  0  1  0  0  0  0  0  0  0  0
  -11.2502    5.0795    2.7307 H   0  0  0  1  0  0  0  0  0  0  0  0
  -12.4933    6.0565    1.9862 H   0  0  0  1  0  0  0  0  0  0  0  0
  -12.9022    1.8354   -1.5229 H   0  0  0  1  0  0  0  0  0  0  0  0
  -11.4961    1.2761   -2.3961 H   0  0  0  1  0  0  0  0  0  0  0  0
  -12.3182    2.7323   -2.9039 H   0  0  0  1  0  0  0  0  0  0  0  0
    2.7158    0.9066    0.1147 H   0  0  0  1  0  0  0  0  0  0  0  0
  -10.1643    3.8866    1.2990 H   0  0  0  1  0  0  0  0  0  0  0  0
   -8.3397    1.7968   -0.2843 H   0  0  0  1  0  0  0  0  0  0  0  0
   -8.4466    2.5590    1.2847 H   0  0  0  1  0  0  0  0  0  0  0  0
   -7.3510    3.7908   -1.1962 H   0  0  0  1  0  0  0  0  0  0  0  0
   -7.4249    4.5541    0.3741 H   0  0  0  1  0  0  0  0  0  0  0  0
   -6.5940    1.0372    1.2647 H   0  0  0  1  0  0  0  0  0  0  0  0
   -5.9818    2.6720    1.3450 H   0  0  0  1  0  0  0  0  0  0  0  0
    2.9073    1.4635    2.7047 H   0  0  0  1  0  0  0  0  0  0  0  0
    1.6221    0.7095    3.6179 H   0  0  0  1  0  0  0  0  0  0  0  0
   -9.1875    5.3070   -1.0576 H   0  0  0  1  0  0  0  0  0  0  0  0
   -6.3102    1.1330   -1.2133 H   0  0  0  1  0  0  0  0  0  0  0  0
   -5.5182    2.6774   -1.0096 H   0  0  0  1  0  0  0  0  0  0  0  0
   -2.8113   -2.5818    0.0243 H   0  0  0  1  0  0  0  0  0  0  0  0
   -2.3358   -2.0116    1.6063 H   0  0  0  1  0  0  0  0  0  0  0  0
    1.7628   -0.4033    1.5303 H   0  0  0  1  0  0  0  0  0  0  0  0
    0.1314    2.5699    2.8757 H   0  0  0  1  0  0  0  0  0  0  0  0
    1.5477    3.3512    2.2141 H   0  0  0  1  0  0  0  0  0  0  0  0
   -0.4659    1.7089   -0.0736 H   0  0  0  1  0  0  0  0  0  0  0  0
    2.5505    3.5010    4.3058 H   0  0  0  1  0  0  0  0  0  0  0  0
    1.3522    2.4520    5.0254 H   0  0  0  1  0  0  0  0  0  0  0  0
   -0.5725    0.0181    2.2631 H   0  0  0  1  0  0  0  0  0  0  0  0
   -0.2982    4.1765    4.7818 H   0  0  0  1  0  0  0  0  0  0  0  0
    0.9065    5.2255    4.0729 H   0  0  0  1  0  0  0  0  0  0  0  0
   -0.6036   -1.6287   -0.8307 H   0  0  0  1  0  0  0  0  0  0  0  0
    1.1069   -2.0341    0.6044 H   0  0  0  1  0  0  0  0  0  0  0  0
   -0.3811   -3.9354    2.0905 H   0  0  0  1  0  0  0  0  0  0  0  0
   -0.6163   -2.3998    2.8910 H   0  0  0  1  0  0  0  0  0  0  0  0
    0.9601    4.1764    6.8788 H   0  0  0  1  0  0  0  0  0  0  0  0
    0.4749    5.7856    6.4017 H   0  0  0  1  0  0  0  0  0  0  0  0
    2.1260    5.2642    6.1646 H   0  0  0  1  0  0  0  0  0  0  0  0
    1.8487   -2.1683    3.0392 H   0  0  0  1  0  0  0  0  0  0  0  0
    1.9961   -3.7833    2.3878 H   0  0  0  1  0  0  0  0  0  0  0  0
    0.6714   -4.6382    4.2779 H   0  0  0  1  0  0  0  0  0  0  0  0
    0.6097   -3.0225    4.9412 H   0  0  0  1  0  0  0  0  0  0  0  0
  1 34  1  0  0  0  0
  2  4  1  0  0  0  0
  3  4  1  0  0  0  0
  4  5  1  0  0  0  0
  4 32  1  0  0  0  0
  6 10  1  0  0  0  0
  6 26  1  0  0  0  0
  6 42  1  0  0  0  0
  7  8  1  0  0  0  0
  7  9  2  0  0  0  0
  7 13  1  0  0  0  0
  8 43  1  0  0  0  0
  8 44  1  0  0  0  0
  8 45  1  0  0  0  0
 10 46  1  0  0  0  0
 10 47  1  0  0  0  0
 10 48  1  0  0  0  0
 11 27  1  0  0  0  0
 11 49  1  0  0  0  0
 12 26  2  0  0  0  0
 13 23  1  0  0  0  0
 13 50  1  0  0  0  0
 14 41  1  0  0  0  0
 15 24  1  0  0  0  0
 15 32  4  0  0  0  0
 15 34  4  0  0  0  0
 16 41  2  0  0  0  0
 17 18  1  0  0  0  0
 17 20  1  0  0  0  0
 17 51  1  0  0  0  0
 17 52  1  0  0  0  0
 18 23  1  0  0  0  0
 18 53  1  0  0  0  0
 18 54  1  0  0  0  0
 19 21  4  0  0  0  0
 19 29  1  0  0  0  0
 19 32  4  0  0  0  0
 20 24  1  0  0  0  0
 20 55  1  0  0  0  0
 20 56  1  0  0  0  0
 21 25  1  0  0  0  0
 21 34  4  0  0  0  0
 22 27  1  0  0  0  0
 22 28  1  0  0  0  0
 22 57  1  0  0  0  0
 22 58  1  0  0  0  0
 23 26  1  0  0  0  0
 23 59  1  0  0  0  0
 24 60  1  0  0  0  0
 24 61  1  0  0  0  0
 25 35  1  0  0  0  0
 25 62  1  0  0  0  0
 25 63  1  0  0  0  0
 27 31  1  0  0  0  0
 27 64  1  0  0  0  0
 28 30  1  0  0  0  0
 28 65  1  0  0  0  0
 28 66  1  0  0  0  0
 29 31  2  0  0  0  0
 29 67  1  0  0  0  0
 30 33  1  0  0  0  0
 30 68  1  0  0  0  0
 30 69  1  0  0  0  0
 31 70  1  0  0  0  0
 33 38  1  0  0  0  0
 33 71  1  0  0  0  0
 33 72  1  0  0  0  0
 35 36  2  0  0  0  0
 35 73  1  0  0  0  0
 36 37  1  0  0  0  0
 36 74  1  0  0  0  0
 37 39  1  0  0  0  0
 37 75  1  0  0  0  0
 37 76  1  0  0  0  0
 38 77  1  0  0  0  0
 38 78  1  0  0  0  0
 38 79  1  0  0  0  0
 39 40  1  0  0  0  0
 39 80  1  0  0  0  0
 39 81  1  0  0  0  0
 40 41  1  0  0  0  0
 40 82  1  0  0  0  0
 40 83  1  0  0  0  0
M  END
> <ConfClashScore>
0 

> <ConfOneFourInteractionScore>
-0.981057 

> <ConfScore>
-0.0117421 

> <ConfScorePBest>
0.00544145 

> <ConfTolerance>
1.54496 

$$$$
9548876
  PyMOL2.2          3D                             0

 83 83  0  0  0  0  0  0  0  0999 V2000
   -4.9976   -1.0262   -0.1442 H   0  0  0  1  0  0  0  0  0  0  0  0
   -2.2855    3.4221   -0.6835 H   0  0  0  1  0  0  0  0  0  0  0  0
   -3.1688    3.6696    0.8035 H   0  0  0  1  0  0  0  0  0  0  0  0
   -3.1828    3.1858   -0.1508 C   0  0  0  1  0  0  0  0  0  0  0  0
   -4.0294    3.5246   -0.7106 H   0  0  0  1  0  0  0  0  0  0  0  0
   -6.2122   -1.5519   -4.0094 N   0  0  0  1  0  0  0  0  0  0  0  0
   -4.9131    0.0291   -7.7747 C   0  0  0  1  0  0  0  0  0  0  0  0
   -4.8339    0.6987   -9.1328 C   0  0  0  1  0  0  0  0  0  0  0  0
   -4.7049   -1.1774   -7.6529 O   0  0  0  1  0  0  0  0  0  0  0  0
   -7.0979   -2.6435   -3.6328 C   0  0  0  1  0  0  0  0  0  0  0  0
    1.7604    0.5610    2.6869 O   0  0  0  1  0  0  0  0  0  0  0  0
   -7.1552   -1.0727   -5.9849 O   0  0  0  1  0  0  0  0  0  0  0  0
   -5.2166    0.7912   -6.7120 N   0  0  0  1  0  0  0  0  0  0  0  0
    2.9230   -6.8661   -1.3764 O   0  5  0  1  0  0  0  0  0  0  0  0
   -4.4533    1.0655   -0.1737 N   0  0  0  1  0  0  0  0  0  0  0  0
    2.2887   -7.0674    0.7989 O   0  0  0  1  0  0  0  0  0  0  0  0
   -5.5258    0.9854   -2.9263 C   0  0  0  1  0  0  0  0  0  0  0  0
   -5.5382    1.4118   -4.3852 C   0  0  0  1  0  0  0  0  0  0  0  0
   -2.3091    0.7521    0.3212 C   0  0  0  1  0  0  0  0  0  0  0  0
   -5.8065    2.1268   -1.9625 C   0  0  0  1  0  0  0  0  0  0  0  0
   -2.9387   -0.5003    0.2729 C   0  0  0  1  0  0  0  0  0  0  0  0
    1.9618   -0.9840    0.8407 C   0  0  0  1  0  0  0  0  0  0  0  0
   -5.2722    0.2540   -5.3606 C   0  0  0  1  0  0  0  0  0  0  0  0
   -5.7222    1.7163   -0.5014 C   0  0  0  1  0  0  0  0  0  0  0  0
   -2.3353   -1.8654    0.5048 C   0  0  0  1  0  0  0  0  0  0  0  0
   -6.2807   -0.8728   -5.1580 C   0  0  0  1  0  0  0  0  0  0  0  0
    1.3590    0.3345    1.3502 C   0  0  0  1  0  0  0  0  0  0  0  0
    3.4398   -0.8805    0.5051 C   0  0  0  1  0  0  0  0  0  0  0  0
   -0.9091    1.0444    0.6067 C   0  0  0  1  0  0  0  0  0  0  0  0
    4.0557   -2.2041    0.0819 C   0  0  0  1  0  0  0  0  0  0  0  0
   -0.1284    0.2113    1.2524 C   0  0  0  1  0  0  0  0  0  0  0  0
   -3.2732    1.7110    0.0417 C   0  0  0  1  0  0  0  0  0  0  0  0
    5.5153   -2.0871   -0.3229 C   0  0  0  1  0  0  0  0  0  0  0  0
   -4.2689   -0.2922   -0.0358 C   0  0  0  1  0  0  0  0  0  0  0  0
   -2.4992   -2.7624   -0.6749 C   0  0  0  1  0  0  0  0  0  0  0  0
   -1.6095   -3.5029   -1.2918 C   0  0  0  1  0  0  0  0  0  0  0  0
   -0.1439   -3.5501   -0.9514 C   0  0  0  1  0  0  0  0  0  0  0  0
    6.0821   -3.4456   -0.6899 C   0  0  0  1  0  0  0  0  0  0  0  0
    0.3672   -4.9619   -0.7148 C   0  0  0  1  0  0  0  0  0  0  0  0
    1.8482   -5.0180   -0.3775 C   0  0  0  1  0  0  0  0  0  0  0  0
    2.3600   -6.4091   -0.2259 C   0  0  0  1  0  0  0  0  0  0  0  0
   -5.5127   -1.2957   -3.3726 H   0  0  0  1  0  0  0  0  0  0  0  0
   -4.3204    0.0570   -9.8180 H   0  0  0  1  0  0  0  0  0  0  0  0
   -4.3026    1.6232   -9.0440 H   0  0  0  1  0  0  0  0  0  0  0  0
   -5.8228    0.8883   -9.4949 H   0  0  0  1  0  0  0  0  0  0  0  0
   -7.6350   -2.3780   -2.7463 H   0  0  0  1  0  0  0  0  0  0  0  0
   -6.5194   -3.5246   -3.4487 H   0  0  0  1  0  0  0  0  0  0  0  0
   -7.7906   -2.8305   -4.4266 H   0  0  0  1  0  0  0  0  0  0  0  0
    1.2611   -0.0125    3.2730 H   0  0  0  1  0  0  0  0  0  0  0  0
   -5.4073    1.7423   -6.8512 H   0  0  0  1  0  0  0  0  0  0  0  0
   -4.5621    0.5794   -2.6997 H   0  0  0  1  0  0  0  0  0  0  0  0
   -6.2726    0.2320   -2.7866 H   0  0  0  1  0  0  0  0  0  0  0  0
   -4.7826    2.1559   -4.5276 H   0  0  0  1  0  0  0  0  0  0  0  0
   -6.4977    1.8297   -4.6083 H   0  0  0  1  0  0  0  0  0  0  0  0
   -6.7915    2.4982   -2.1542 H   0  0  0  1  0  0  0  0  0  0  0  0
   -5.0915    2.9031   -2.1386 H   0  0  0  1  0  0  0  0  0  0  0  0
    1.4335   -1.2799   -0.0415 H   0  0  0  1  0  0  0  0  0  0  0  0
    1.8373   -1.7291    1.5984 H   0  0  0  1  0  0  0  0  0  0  0  0
   -4.3067   -0.1405   -5.1219 H   0  0  0  1  0  0  0  0  0  0  0  0
   -5.8263    2.5904    0.1069 H   0  0  0  1  0  0  0  0  0  0  0  0
   -6.5209    1.0365   -0.2896 H   0  0  0  1  0  0  0  0  0  0  0  0
   -2.8154   -2.3152    1.3487 H   0  0  0  1  0  0  0  0  0  0  0  0
   -1.2910   -1.7503    0.7074 H   0  0  0  1  0  0  0  0  0  0  0  0
    1.6870    1.1329    0.7178 H   0  0  0  1  0  0  0  0  0  0  0  0
    3.9600   -0.5254    1.3701 H   0  0  0  1  0  0  0  0  0  0  0  0
    3.5578   -0.1801   -0.2952 H   0  0  0  1  0  0  0  0  0  0  0  0
   -0.5135    1.9509    0.2851 H   0  0  0  1  0  0  0  0  0  0  0  0
    3.5022   -2.5850   -0.7508 H   0  0  0  1  0  0  0  0  0  0  0  0
    3.9847   -2.8887    0.9012 H   0  0  0  1  0  0  0  0  0  0  0  0
   -0.5771   -0.5950    1.7320 H   0  0  0  1  0  0  0  0  0  0  0  0
    6.0748   -1.6828    0.4947 H   0  0  0  1  0  0  0  0  0  0  0  0
    5.5941   -1.4343   -1.1670 H   0  0  0  1  0  0  0  0  0  0  0  0
   -3.4616   -2.8077   -1.0667 H   0  0  0  1  0  0  0  0  0  0  0  0
   -1.9413   -4.1020   -2.0745 H   0  0  0  1  0  0  0  0  0  0  0  0
    0.0181   -2.9759   -0.0632 H   0  0  0  1  0  0  0  0  0  0  0  0
    0.4078   -3.1194   -1.7608 H   0  0  0  1  0  0  0  0  0  0  0  0
    7.0247   -3.5828   -0.2026 H   0  0  0  1  0  0  0  0  0  0  0  0
    6.2174   -3.5007   -1.7499 H   0  0  0  1  0  0  0  0  0  0  0  0
    5.4038   -4.2113   -0.3762 H   0  0  0  1  0  0  0  0  0  0  0  0
    0.1992   -5.5367   -1.6016 H   0  0  0  1  0  0  0  0  0  0  0  0
   -0.1822   -5.3899    0.0976 H   0  0  0  1  0  0  0  0  0  0  0  0
    2.0082   -4.4942    0.5417 H   0  0  0  1  0  0  0  0  0  0  0  0
    2.3946   -4.5377   -1.1621 H   0  0  0  1  0  0  0  0  0  0  0  0
  1 34  1  0  0  0  0
  2  4  1  0  0  0  0
  3  4  1  0  0  0  0
  4  5  1  0  0  0  0
  4 32  1  0  0  0  0
  6 10  1  0  0  0  0
  6 26  1  0  0  0  0
  6 42  1  0  0  0  0
  7  8  1  0  0  0  0
  7  9  2  0  0  0  0
  7 13  1  0  0  0  0
  8 43  1  0  0  0  0
  8 44  1  0  0  0  0
  8 45  1  0  0  0  0
 10 46  1  0  0  0  0
 10 47  1  0  0  0  0
 10 48  1  0  0  0  0
 11 27  1  0  0  0  0
 11 49  1  0  0  0  0
 12 26  2  0  0  0  0
 13 23  1  0  0  0  0
 13 50  1  0  0  0  0
 14 41  1  0  0  0  0
 15 24  1  0  0  0  0
 15 32  4  0  0  0  0
 15 34  4  0  0  0  0
 16 41  2  0  0  0  0
 17 18  1  0  0  0  0
 17 20  1  0  0  0  0
 17 51  1  0  0  0  0
 17 52  1  0  0  0  0
 18 23  1  0  0  0  0
 18 53  1  0  0  0  0
 18 54  1  0  0  0  0
 19 21  4  0  0  0  0
 19 29  1  0  0  0  0
 19 32  4  0  0  0  0
 20 24  1  0  0  0  0
 20 55  1  0  0  0  0
 20 56  1  0  0  0  0
 21 25  1  0  0  0  0
 21 34  4  0  0  0  0
 22 27  1  0  0  0  0
 22 28  1  0  0  0  0
 22 57  1  0  0  0  0
 22 58  1  0  0  0  0
 23 26  1  0  0  0  0
 23 59  1  0  0  0  0
 24 60  1  0  0  0  0
 24 61  1  0  0  0  0
 25 35  1  0  0  0  0
 25 62  1  0  0  0  0
 25 63  1  0  0  0  0
 27 31  1  0  0  0  0
 27 64  1  0  0  0  0
 28 30  1  0  0  0  0
 28 65  1  0  0  0  0
 28 66  1  0  0  0  0
 29 31  2  0  0  0  0
 29 67  1  0  0  0  0
 30 33  1  0  0  0  0
 30 68  1  0  0  0  0
 30 69  1  0  0  0  0
 31 70  1  0  0  0  0
 33 38  1  0  0  0  0
 33 71  1  0  0  0  0
 33 72  1  0  0  0  0
 35 36  2  0  0  0  0
 35 73  1  0  0  0  0
 36 37  1  0  0  0  0
 36 74  1  0  0  0  0
 37 39  1  0  0  0  0
 37 75  1  0  0  0  0
 37 76  1  0  0  0  0
 38 77  1  0  0  0  0
 38 78  1  0  0  0  0
 38 79  1  0  0  0  0
 39 40  1  0  0  0  0
 39 80  1  0  0  0  0
 39 81  1  0  0  0  0
 40 41  1  0  0  0  0
 40 82  1  0  0  0  0
 40 83  1  0  0  0  0
M  END
> <ConfClashScore>
0 

> <ConfOneFourInteractionScore>
-0.993773 

> <ConfScore>
-0.0114422 

> <ConfScorePBest>
0.00541297 

> <ConfTolerance>
1.98477 

$$$$
9548876
  PyMOL2.2          3D                             0

 83 83  0  0  0  0  0  0  0  0999 V2000
   -5.0168   -1.0239   -0.0942 H   0  0  0  1  0  0  0  0  0  0  0  0
   -3.9533    3.5312   -0.8041 H   0  0  0  1  0  0  0  0  0  0  0  0
   -2.2258    3.4508   -0.5558 H   0  0  0  1  0  0  0  0  0  0  0  0
   -3.1798    3.1842   -0.1513 C   0  0  0  1  0  0  0  0  0  0  0  0
   -3.2978    3.6347    0.8121 H   0  0  0  1  0  0  0  0  0  0  0  0
   -6.8817    2.6403   -7.2435 N   0  0  0  1  0  0  0  0  0  0  0  0
   -3.8585    3.4444   -6.0065 C   0  0  0  1  0  0  0  0  0  0  0  0
   -3.5326    4.9124   -5.8116 C   0  0  0  1  0  0  0  0  0  0  0  0
   -3.1226    2.7087   -6.6630 O   0  0  0  1  0  0  0  0  0  0  0  0
   -7.5689    2.7060   -8.5246 C   0  0  0  1  0  0  0  0  0  0  0  0
    1.5678    1.3189    1.7508 O   0  0  0  1  0  0  0  0  0  0  0  0
   -6.2803    0.4922   -7.4566 O   0  0  0  1  0  0  0  0  0  0  0  0
   -4.9876    3.0150   -5.4211 N   0  0  0  1  0  0  0  0  0  0  0  0
   -0.7373   -8.0676   -3.3766 O   0  5  0  1  0  0  0  0  0  0  0  0
   -4.4562    1.0613   -0.1946 N   0  0  0  1  0  0  0  0  0  0  0  0
    0.8937   -7.0159   -2.1615 O   0  0  0  1  0  0  0  0  0  0  0  0
   -5.5237    1.4252   -3.0319 C   0  0  0  1  0  0  0  0  0  0  0  0
   -6.2962    1.2234   -4.3265 C   0  0  0  1  0  0  0  0  0  0  0  0
   -2.3055    0.7437    0.2683 C   0  0  0  1  0  0  0  0  0  0  0  0
   -6.3566    1.1673   -1.7868 C   0  0  0  1  0  0  0  0  0  0  0  0
   -2.9460   -0.5040    0.2682 C   0  0  0  1  0  0  0  0  0  0  0  0
    1.7636    3.3297    0.4338 C   0  0  0  1  0  0  0  0  0  0  0  0
   -5.4484    1.6394   -5.5363 C   0  0  0  1  0  0  0  0  0  0  0  0
   -5.7267    1.7138   -0.5170 C   0  0  0  1  0  0  0  0  0  0  0  0
   -2.2941   -1.8399    0.5363 C   0  0  0  1  0  0  0  0  0  0  0  0
   -6.2680    1.5322   -6.8188 C   0  0  0  1  0  0  0  0  0  0  0  0
    0.9115    2.5263    1.4239 C   0  0  0  1  0  0  0  0  0  0  0  0
    2.9955    3.9047    1.0451 C   0  0  0  1  0  0  0  0  0  0  0  0
   -0.9245    1.0461    0.6244 C   0  0  0  1  0  0  0  0  0  0  0  0
    3.8468    4.8195    0.1858 C   0  0  0  1  0  0  0  0  0  0  0  0
   -0.4369    2.2443    0.8414 C   0  0  0  1  0  0  0  0  0  0  0  0
   -3.2670    1.7025   -0.0204 C   0  0  0  1  0  0  0  0  0  0  0  0
    5.0616    5.3704    0.9129 C   0  0  0  1  0  0  0  0  0  0  0  0
   -4.2802   -0.2933   -0.0210 C   0  0  0  1  0  0  0  0  0  0  0  0
   -3.2503   -2.9533    0.8131 C   0  0  0  1  0  0  0  0  0  0  0  0
   -3.2632   -4.0789    0.1316 C   0  0  0  1  0  0  0  0  0  0  0  0
   -2.5963   -4.3460   -1.1803 C   0  0  0  1  0  0  0  0  0  0  0  0
    5.8545    4.2026    1.4745 C   0  0  0  1  0  0  0  0  0  0  0  0
   -1.7880   -5.6313   -1.2507 C   0  0  0  1  0  0  0  0  0  0  0  0
   -1.1365   -5.8601   -2.6048 C   0  0  0  1  0  0  0  0  0  0  0  0
   -0.2108   -7.0253   -2.6795 C   0  0  0  1  0  0  0  0  0  0  0  0
   -6.8686    3.4367   -6.6725 H   0  0  0  1  0  0  0  0  0  0  0  0
   -4.4138    5.4981   -5.9705 H   0  0  0  1  0  0  0  0  0  0  0  0
   -2.7784    5.2061   -6.5115 H   0  0  0  1  0  0  0  0  0  0  0  0
   -3.1755    5.0690   -4.8152 H   0  0  0  1  0  0  0  0  0  0  0  0
   -7.8220    1.7170   -8.8453 H   0  0  0  1  0  0  0  0  0  0  0  0
   -6.9283    3.1627   -9.2497 H   0  0  0  1  0  0  0  0  0  0  0  0
   -8.4618    3.2864   -8.4208 H   0  0  0  1  0  0  0  0  0  0  0  0
    2.2305    1.4866    2.4248 H   0  0  0  1  0  0  0  0  0  0  0  0
   -5.5202    3.6499   -4.8980 H   0  0  0  1  0  0  0  0  0  0  0  0
   -5.1712    2.4350   -3.0011 H   0  0  0  1  0  0  0  0  0  0  0  0
   -4.6894    0.7553   -3.0267 H   0  0  0  1  0  0  0  0  0  0  0  0
   -7.1857    1.8175   -4.3005 H   0  0  0  1  0  0  0  0  0  0  0  0
   -6.5591    0.1905   -4.4208 H   0  0  0  1  0  0  0  0  0  0  0  0
   -6.4822    0.1105   -1.6756 H   0  0  0  1  0  0  0  0  0  0  0  0
   -7.3131    1.6289   -1.9169 H   0  0  0  1  0  0  0  0  0  0  0  0
    1.1698    4.1321    0.0485 H   0  0  0  1  0  0  0  0  0  0  0  0
    2.0529    2.6826   -0.3678 H   0  0  0  1  0  0  0  0  0  0  0  0
   -4.6077    0.9814   -5.6083 H   0  0  0  1  0  0  0  0  0  0  0  0
   -5.5513    2.7616   -0.6448 H   0  0  0  1  0  0  0  0  0  0  0  0
   -6.4060    1.5619    0.2956 H   0  0  0  1  0  0  0  0  0  0  0  0
   -1.6514   -1.7332    1.3851 H   0  0  0  1  0  0  0  0  0  0  0  0
   -1.7120   -2.1053   -0.3213 H   0  0  0  1  0  0  0  0  0  0  0  0
    0.7797    3.1170    2.3063 H   0  0  0  1  0  0  0  0  0  0  0  0
    3.6133    3.0858    1.3496 H   0  0  0  1  0  0  0  0  0  0  0  0
    2.6940    4.4640    1.9060 H   0  0  0  1  0  0  0  0  0  0  0  0
   -0.2698    0.2430    0.7140 H   0  0  0  1  0  0  0  0  0  0  0  0
    3.2425    5.6416   -0.1364 H   0  0  0  1  0  0  0  0  0  0  0  0
    4.1832    4.2677   -0.6670 H   0  0  0  1  0  0  0  0  0  0  0  0
   -1.0324    3.0590    0.5898 H   0  0  0  1  0  0  0  0  0  0  0  0
    4.7459    6.0097    1.7107 H   0  0  0  1  0  0  0  0  0  0  0  0
    5.6704    5.9254    0.2301 H   0  0  0  1  0  0  0  0  0  0  0  0
   -3.9399   -2.8331    1.5822 H   0  0  0  1  0  0  0  0  0  0  0  0
   -3.7947   -4.8686    0.5507 H   0  0  0  1  0  0  0  0  0  0  0  0
   -1.9366   -3.5294   -1.3875 H   0  0  0  1  0  0  0  0  0  0  0  0
   -3.3553   -4.3917   -1.9332 H   0  0  0  1  0  0  0  0  0  0  0  0
    6.8973    4.4424    1.4669 H   0  0  0  1  0  0  0  0  0  0  0  0
    5.6841    3.3341    0.8732 H   0  0  0  1  0  0  0  0  0  0  0  0
    5.5406    4.0088    2.4789 H   0  0  0  1  0  0  0  0  0  0  0  0
   -2.4404   -6.4540   -1.0448 H   0  0  0  1  0  0  0  0  0  0  0  0
   -1.0197   -5.5900   -0.5072 H   0  0  0  1  0  0  0  0  0  0  0  0
   -0.5813   -4.9807   -2.8567 H   0  0  0  1  0  0  0  0  0  0  0  0
   -1.9142   -6.0097   -3.3242 H   0  0  0  1  0  0  0  0  0  0  0  0
  1 34  1  0  0  0  0
  2  4  1  0  0  0  0
  3  4  1  0  0  0  0
  4  5  1  0  0  0  0
  4 32  1  0  0  0  0
  6 10  1  0  0  0  0
  6 26  1  0  0  0  0
  6 42  1  0  0  0  0
  7  8  1  0  0  0  0
  7  9  2  0  0  0  0
  7 13  1  0  0  0  0
  8 43  1  0  0  0  0
  8 44  1  0  0  0  0
  8 45  1  0  0  0  0
 10 46  1  0  0  0  0
 10 47  1  0  0  0  0
 10 48  1  0  0  0  0
 11 27  1  0  0  0  0
 11 49  1  0  0  0  0
 12 26  2  0  0  0  0
 13 23  1  0  0  0  0
 13 50  1  0  0  0  0
 14 41  1  0  0  0  0
 15 24  1  0  0  0  0
 15 32  4  0  0  0  0
 15 34  4  0  0  0  0
 16 41  2  0  0  0  0
 17 18  1  0  0  0  0
 17 20  1  0  0  0  0
 17 51  1  0  0  0  0
 17 52  1  0  0  0  0
 18 23  1  0  0  0  0
 18 53  1  0  0  0  0
 18 54  1  0  0  0  0
 19 21  4  0  0  0  0
 19 29  1  0  0  0  0
 19 32  4  0  0  0  0
 20 24  1  0  0  0  0
 20 55  1  0  0  0  0
 20 56  1  0  0  0  0
 21 25  1  0  0  0  0
 21 34  4  0  0  0  0
 22 27  1  0  0  0  0
 22 28  1  0  0  0  0
 22 57  1  0  0  0  0
 22 58  1  0  0  0  0
 23 26  1  0  0  0  0
 23 59  1  0  0  0  0
 24 60  1  0  0  0  0
 24 61  1  0  0  0  0
 25 35  1  0  0  0  0
 25 62  1  0  0  0  0
 25 63  1  0  0  0  0
 27 31  1  0  0  0  0
 27 64  1  0  0  0  0
 28 30  1  0  0  0  0
 28 65  1  0  0  0  0
 28 66  1  0  0  0  0
 29 31  2  0  0  0  0
 29 67  1  0  0  0  0
 30 33  1  0  0  0  0
 30 68  1  0  0  0  0
 30 69  1  0  0  0  0
 31 70  1  0  0  0  0
 33 38  1  0  0  0  0
 33 71  1  0  0  0  0
 33 72  1  0  0  0  0
 35 36  2  0  0  0  0
 35 73  1  0  0  0  0
 36 37  1  0  0  0  0
 36 74  1  0  0  0  0
 37 39  1  0  0  0  0
 37 75  1  0  0  0  0
 37 76  1  0  0  0  0
 38 77  1  0  0  0  0
 38 78  1  0  0  0  0
 38 79  1  0  0  0  0
 39 40  1  0  0  0  0
 39 80  1  0  0  0  0
 39 81  1  0  0  0  0
 40 41  1  0  0  0  0
 40 82  1  0  0  0  0
 40 83  1  0  0  0  0
M  END
> <ConfClashScore>
0 

> <ConfOneFourInteractionScore>
-0.984625 

> <ConfScore>
-0.00882862 

> <ConfScorePBest>
0.00538449 

> <ConfTolerance>
1.9546 

$$$$
9548876
  PyMOL2.2          3D                             0

 83 83  0  0  0  0  0  0  0  0999 V2000
   -5.0156   -1.0192   -0.0863 H   0  0  0  1  0  0  0  0  0  0  0  0
   -3.0305    3.4504   -1.1559 H   0  0  0  1  0  0  0  0  0  0  0  0
   -2.3505    3.5463    0.4507 H   0  0  0  1  0  0  0  0  0  0  0  0
   -3.1754    3.1877   -0.1288 C   0  0  0  1  0  0  0  0  0  0  0  0
   -4.0818    3.6306    0.2278 H   0  0  0  1  0  0  0  0  0  0  0  0
  -10.1502    0.7398   -5.1423 N   0  0  0  1  0  0  0  0  0  0  0  0
   -9.5429    4.9050   -5.0930 C   0  0  0  1  0  0  0  0  0  0  0  0
   -9.8019    6.2837   -4.5176 C   0  0  0  1  0  0  0  0  0  0  0  0
   -9.7637    4.6572   -6.2670 O   0  0  0  1  0  0  0  0  0  0  0  0
  -11.0245   -0.3991   -4.9050 C   0  0  0  1  0  0  0  0  0  0  0  0
    1.6240    1.5916    1.4938 O   0  0  0  1  0  0  0  0  0  0  0  0
  -10.3977    1.7636   -3.1480 O   0  0  0  1  0  0  0  0  0  0  0  0
   -9.0619    3.9945   -4.2317 N   0  0  0  1  0  0  0  0  0  0  0  0
    0.0152   -7.2465    3.8608 O   0  5  0  1  0  0  0  0  0  0  0  0
   -4.4533    1.0659   -0.1799 N   0  0  0  1  0  0  0  0  0  0  0  0
    0.7265   -5.0982    3.6301 O   0  0  0  1  0  0  0  0  0  0  0  0
   -7.2317    2.2189   -2.5634 C   0  0  0  1  0  0  0  0  0  0  0  0
   -7.4113    2.1814   -4.0210 C   0  0  0  1  0  0  0  0  0  0  0  0
   -2.3036    0.7454    0.2852 C   0  0  0  1  0  0  0  0  0  0  0  0
   -5.8756    1.7034   -2.1099 C   0  0  0  1  0  0  0  0  0  0  0  0
   -2.9450   -0.5019    0.2807 C   0  0  0  1  0  0  0  0  0  0  0  0
    1.8472    3.2471   -0.2532 C   0  0  0  1  0  0  0  0  0  0  0  0
   -8.7380    2.6351   -4.6379 C   0  0  0  1  0  0  0  0  0  0  0  0
   -5.7190    1.6687   -0.5992 C   0  0  0  1  0  0  0  0  0  0  0  0
   -2.3498   -1.8661    0.5376 C   0  0  0  1  0  0  0  0  0  0  0  0
   -9.8652    1.6858   -4.2429 C   0  0  0  1  0  0  0  0  0  0  0  0
    0.9685    2.6858    0.8715 C   0  0  0  1  0  0  0  0  0  0  0  0
    1.9665    2.3724   -1.4869 C   0  0  0  1  0  0  0  0  0  0  0  0
   -0.9068    1.0832    0.5311 C   0  0  0  1  0  0  0  0  0  0  0  0
    3.0201    2.9183   -2.4336 C   0  0  0  1  0  0  0  0  0  0  0  0
   -0.3590    2.2581    0.3311 C   0  0  0  1  0  0  0  0  0  0  0  0
   -3.2639    1.7057   -0.0022 C   0  0  0  1  0  0  0  0  0  0  0  0
    3.1143    2.1467   -3.7399 C   0  0  0  1  0  0  0  0  0  0  0  0
   -4.2786   -0.2894   -0.0099 C   0  0  0  1  0  0  0  0  0  0  0  0
   -3.3453   -2.9781    0.5915 C   0  0  0  1  0  0  0  0  0  0  0  0
   -3.3626   -3.8806    1.5402 C   0  0  0  1  0  0  0  0  0  0  0  0
   -2.3884   -4.0175    2.6796 C   0  0  0  1  0  0  0  0  0  0  0  0
    4.1586    2.7027   -4.6942 C   0  0  0  1  0  0  0  0  0  0  0  0
   -2.5236   -5.3363    3.4233 C   0  0  0  1  0  0  0  0  0  0  0  0
   -1.4711   -5.5299    4.5028 C   0  0  0  1  0  0  0  0  0  0  0  0
   -0.1350   -5.8982    3.9559 C   0  0  0  1  0  0  0  0  0  0  0  0
   -9.7396    0.8189   -6.0286 H   0  0  0  1  0  0  0  0  0  0  0  0
   -9.1663    6.4428   -3.6716 H   0  0  0  1  0  0  0  0  0  0  0  0
  -10.8251    6.3566   -4.2134 H   0  0  0  1  0  0  0  0  0  0  0  0
   -9.5969    7.0248   -5.2617 H   0  0  0  1  0  0  0  0  0  0  0  0
  -10.4512   -1.2145   -4.5159 H   0  0  0  1  0  0  0  0  0  0  0  0
  -11.4839   -0.6937   -5.8253 H   0  0  0  1  0  0  0  0  0  0  0  0
  -11.7811   -0.1267   -4.1992 H   0  0  0  1  0  0  0  0  0  0  0  0
    1.7060    1.7605    2.4352 H   0  0  0  1  0  0  0  0  0  0  0  0
   -8.9242    4.2543   -3.2968 H   0  0  0  1  0  0  0  0  0  0  0  0
   -7.9919    1.6159   -2.1124 H   0  0  0  1  0  0  0  0  0  0  0  0
   -7.3370    3.2316   -2.2345 H   0  0  0  1  0  0  0  0  0  0  0  0
   -7.2593    1.1670   -4.3255 H   0  0  0  1  0  0  0  0  0  0  0  0
   -6.6465    2.7994   -4.4429 H   0  0  0  1  0  0  0  0  0  0  0  0
   -5.1176    2.3409   -2.5150 H   0  0  0  1  0  0  0  0  0  0  0  0
   -5.7465    0.7106   -2.4873 H   0  0  0  1  0  0  0  0  0  0  0  0
    2.8306    3.3973    0.1407 H   0  0  0  1  0  0  0  0  0  0  0  0
    1.4357    4.1877   -0.5547 H   0  0  0  1  0  0  0  0  0  0  0  0
   -8.6355    2.6046   -5.7026 H   0  0  0  1  0  0  0  0  0  0  0  0
   -5.7613    2.6709   -0.2270 H   0  0  0  1  0  0  0  0  0  0  0  0
   -6.5241    1.0991   -0.1841 H   0  0  0  1  0  0  0  0  0  0  0  0
   -1.8341   -1.8341    1.4746 H   0  0  0  1  0  0  0  0  0  0  0  0
   -1.6534   -2.0793   -0.2463 H   0  0  0  1  0  0  0  0  0  0  0  0
    0.8056    3.4638    1.5878 H   0  0  0  1  0  0  0  0  0  0  0  0
    1.0227    2.3452   -1.9903 H   0  0  0  1  0  0  0  0  0  0  0  0
    2.2414    1.3820   -1.1895 H   0  0  0  1  0  0  0  0  0  0  0  0
   -0.2922    0.3279    0.8963 H   0  0  0  1  0  0  0  0  0  0  0  0
    3.9708    2.8748   -1.9446 H   0  0  0  1  0  0  0  0  0  0  0  0
    2.7799    3.9366   -2.6577 H   0  0  0  1  0  0  0  0  0  0  0  0
   -0.8870    2.9433   -0.2462 H   0  0  0  1  0  0  0  0  0  0  0  0
    2.1604    2.1808   -4.2235 H   0  0  0  1  0  0  0  0  0  0  0  0
    3.3654    1.1309   -3.5165 H   0  0  0  1  0  0  0  0  0  0  0  0
   -4.0601   -3.0387   -0.1615 H   0  0  0  1  0  0  0  0  0  0  0  0
   -4.1328   -4.5784    1.5023 H   0  0  0  1  0  0  0  0  0  0  0  0
   -2.5578   -3.2181    3.3704 H   0  0  0  1  0  0  0  0  0  0  0  0
   -1.3949   -3.9472    2.2887 H   0  0  0  1  0  0  0  0  0  0  0  0
    4.6313    3.5537   -4.2500 H   0  0  0  1  0  0  0  0  0  0  0  0
    3.6862    2.9944   -5.6089 H   0  0  0  1  0  0  0  0  0  0  0  0
    4.8934    1.9515   -4.8954 H   0  0  0  1  0  0  0  0  0  0  0  0
   -2.4355   -6.1348    2.7166 H   0  0  0  1  0  0  0  0  0  0  0  0
   -3.4898   -5.3698    3.8816 H   0  0  0  1  0  0  0  0  0  0  0  0
   -1.7967   -6.3090    5.1600 H   0  0  0  1  0  0  0  0  0  0  0  0
   -1.3744   -4.6166    5.0519 H   0  0  0  1  0  0  0  0  0  0  0  0
  1 34  1  0  0  0  0
  2  4  1  0  0  0  0
  3  4  1  0  0  0  0
  4  5  1  0  0  0  0
  4 32  1  0  0  0  0
  6 10  1  0  0  0  0
  6 26  1  0  0  0  0
  6 42  1  0  0  0  0
  7  8  1  0  0  0  0
  7  9  2  0  0  0  0
  7 13  1  0  0  0  0
  8 43  1  0  0  0  0
  8 44  1  0  0  0  0
  8 45  1  0  0  0  0
 10 46  1  0  0  0  0
 10 47  1  0  0  0  0
 10 48  1  0  0  0  0
 11 27  1  0  0  0  0
 11 49  1  0  0  0  0
 12 26  2  0  0  0  0
 13 23  1  0  0  0  0
 13 50  1  0  0  0  0
 14 41  1  0  0  0  0
 15 24  1  0  0  0  0
 15 32  4  0  0  0  0
 15 34  4  0  0  0  0
 16 41  2  0  0  0  0
 17 18  1  0  0  0  0
 17 20  1  0  0  0  0
 17 51  1  0  0  0  0
 17 52  1  0  0  0  0
 18 23  1  0  0  0  0
 18 53  1  0  0  0  0
 18 54  1  0  0  0  0
 19 21  4  0  0  0  0
 19 29  1  0  0  0  0
 19 32  4  0  0  0  0
 20 24  1  0  0  0  0
 20 55  1  0  0  0  0
 20 56  1  0  0  0  0
 21 25  1  0  0  0  0
 21 34  4  0  0  0  0
 22 27  1  0  0  0  0
 22 28  1  0  0  0  0
 22 57  1  0  0  0  0
 22 58  1  0  0  0  0
 23 26  1  0  0  0  0
 23 59  1  0  0  0  0
 24 60  1  0  0  0  0
 24 61  1  0  0  0  0
 25 35  1  0  0  0  0
 25 62  1  0  0  0  0
 25 63  1  0  0  0  0
 27 31  1  0  0  0  0
 27 64  1  0  0  0  0
 28 30  1  0  0  0  0
 28 65  1  0  0  0  0
 28 66  1  0  0  0  0
 29 31  2  0  0  0  0
 29 67  1  0  0  0  0
 30 33  1  0  0  0  0
 30 68  1  0  0  0  0
 30 69  1  0  0  0  0
 31 70  1  0  0  0  0
 33 38  1  0  0  0  0
 33 71  1  0  0  0  0
 33 72  1  0  0  0  0
 35 36  2  0  0  0  0
 35 73  1  0  0  0  0
 36 37  1  0  0  0  0
 36 74  1  0  0  0  0
 37 39  1  0  0  0  0
 37 75  1  0  0  0  0
 37 76  1  0  0  0  0
 38 77  1  0  0  0  0
 38 78  1  0  0  0  0
 38 79  1  0  0  0  0
 39 40  1  0  0  0  0
 39 80  1  0  0  0  0
 39 81  1  0  0  0  0
 40 41  1  0  0  0  0
 40 82  1  0  0  0  0
 40 83  1  0  0  0  0
M  END
> <ConfClashScore>
0 

> <ConfOneFourInteractionScore>
-0.992809 

> <ConfScore>
-0.0072119 

> <ConfScorePBest>
0.00535601 

> <ConfTolerance>
1.63324 

$$$$
9548876
  PyMOL2.2          3D                             0

 83 83  0  0  0  0  0  0  0  0999 V2000
   -5.0008   -1.0490   -0.1098 H   0  0  0  1  0  0  0  0  0  0  0  0
   -2.6792    3.5768    0.7243 H   0  0  0  1  0  0  0  0  0  0  0  0
   -4.1610    3.6168   -0.2006 H   0  0  0  1  0  0  0  0  0  0  0  0
   -3.1831    3.1873   -0.1355 C   0  0  0  1  0  0  0  0  0  0  0  0
   -2.6264    3.4316   -1.0160 H   0  0  0  1  0  0  0  0  0  0  0  0
  -11.8518    4.5074    2.5903 N   0  0  0  1  0  0  0  0  0  0  0  0
  -11.2825    5.0273   -0.4597 C   0  0  0  1  0  0  0  0  0  0  0  0
  -11.2535    6.0316   -1.6133 C   0  0  0  1  0  0  0  0  0  0  0  0
  -12.2971    4.3722   -0.2250 O   0  0  0  1  0  0  0  0  0  0  0  0
  -12.5703    4.7991    3.8218 C   0  0  0  1  0  0  0  0  0  0  0  0
    1.2200    3.6355    0.3140 O   0  0  0  1  0  0  0  0  0  0  0  0
   -9.7926    4.8608    3.4398 O   0  0  0  1  0  0  0  0  0  0  0  0
  -10.1137    4.8752    0.1814 N   0  0  0  1  0  0  0  0  0  0  0  0
   -7.9342   -2.1495   -4.1637 O   0  5  0  1  0  0  0  0  0  0  0  0
   -4.4742    1.0453   -0.2045 N   0  0  0  1  0  0  0  0  0  0  0  0
   -5.8554   -2.1844   -5.1181 O   0  0  0  1  0  0  0  0  0  0  0  0
   -7.8466    2.7496    0.2975 C   0  0  0  1  0  0  0  0  0  0  0  0
   -8.5014    3.4240    1.4775 C   0  0  0  1  0  0  0  0  0  0  0  0
   -2.3244    0.7642    0.2850 C   0  0  0  1  0  0  0  0  0  0  0  0
   -6.4966    2.1709    0.6885 C   0  0  0  1  0  0  0  0  0  0  0  0
   -2.9437   -0.4941    0.2778 C   0  0  0  1  0  0  0  0  0  0  0  0
    1.1880    3.1546    2.6379 C   0  0  0  1  0  0  0  0  0  0  0  0
   -9.9339    3.9044    1.2490 C   0  0  0  1  0  0  0  0  0  0  0  0
   -5.7238    1.7277   -0.5421 C   0  0  0  1  0  0  0  0  0  0  0  0
   -2.2707   -1.8226    0.5555 C   0  0  0  1  0  0  0  0  0  0  0  0
  -10.5172    4.4981    2.5278 C   0  0  0  1  0  0  0  0  0  0  0  0
    0.8904    2.6021    1.2417 C   0  0  0  1  0  0  0  0  0  0  0  0
    2.6527    3.4282    2.9343 C   0  0  0  1  0  0  0  0  0  0  0  0
   -0.9106    1.0227    0.5607 C   0  0  0  1  0  0  0  0  0  0  0  0
    2.8877    4.0225    4.3145 C   0  0  0  1  0  0  0  0  0  0  0  0
   -0.5315    2.1759    1.0578 C   0  0  0  1  0  0  0  0  0  0  0  0
   -3.2983    1.7066   -0.0161 C   0  0  0  1  0  0  0  0  0  0  0  0
    4.3578    4.2360    4.6363 C   0  0  0  1  0  0  0  0  0  0  0  0
   -4.2776   -0.3061   -0.0280 C   0  0  0  1  0  0  0  0  0  0  0  0
   -1.7082   -2.5596   -0.6183 C   0  0  0  1  0  0  0  0  0  0  0  0
   -2.3731   -3.3236   -1.4768 C   0  0  0  1  0  0  0  0  0  0  0  0
   -3.8744   -3.2815   -1.5578 C   0  0  0  1  0  0  0  0  0  0  0  0
    4.6147    4.5494    6.1013 C   0  0  0  1  0  0  0  0  0  0  0  0
   -4.4413   -2.6367   -2.8121 C   0  0  0  1  0  0  0  0  0  0  0  0
   -5.9594   -2.5602   -2.8168 C   0  0  0  1  0  0  0  0  0  0  0  0
   -6.5806   -2.2800   -4.1418 C   0  0  0  1  0  0  0  0  0  0  0  0
  -12.3647    4.3109    1.7787 H   0  0  0  1  0  0  0  0  0  0  0  0
  -12.1729    5.9765   -2.1579 H   0  0  0  1  0  0  0  0  0  0  0  0
  -10.4380    5.8009   -2.2663 H   0  0  0  1  0  0  0  0  0  0  0  0
  -11.1295    7.0199   -1.2223 H   0  0  0  1  0  0  0  0  0  0  0  0
  -12.7977    3.8843    4.3280 H   0  0  0  1  0  0  0  0  0  0  0  0
  -13.4793    5.3140    3.5906 H   0  0  0  1  0  0  0  0  0  0  0  0
  -11.9621    5.4136    4.4522 H   0  0  0  1  0  0  0  0  0  0  0  0
    0.7924    3.4594   -0.5272 H   0  0  0  1  0  0  0  0  0  0  0  0
   -9.3548    5.4379   -0.0789 H   0  0  0  1  0  0  0  0  0  0  0  0
   -7.7077    3.4671   -0.4841 H   0  0  0  1  0  0  0  0  0  0  0  0
   -8.4792    1.9600   -0.0508 H   0  0  0  1  0  0  0  0  0  0  0  0
   -7.9073    4.2733    1.7430 H   0  0  0  1  0  0  0  0  0  0  0  0
   -8.5129    2.7280    2.2902 H   0  0  0  1  0  0  0  0  0  0  0  0
   -6.6486    1.3279    1.3298 H   0  0  0  1  0  0  0  0  0  0  0  0
   -5.9320    2.9171    1.2074 H   0  0  0  1  0  0  0  0  0  0  0  0
    0.8335    2.4448    3.3557 H   0  0  0  1  0  0  0  0  0  0  0  0
    0.6519    4.0739    2.7497 H   0  0  0  1  0  0  0  0  0  0  0  0
  -10.5187    3.0409    1.0096 H   0  0  0  1  0  0  0  0  0  0  0  0
   -6.3370    1.0592   -1.1096 H   0  0  0  1  0  0  0  0  0  0  0  0
   -5.4948    2.5903   -1.1322 H   0  0  0  1  0  0  0  0  0  0  0  0
   -2.9945   -2.4597    1.0194 H   0  0  0  1  0  0  0  0  0  0  0  0
   -1.4664   -1.6401    1.2371 H   0  0  0  1  0  0  0  0  0  0  0  0
    1.5225    1.7550    1.0751 H   0  0  0  1  0  0  0  0  0  0  0  0
    3.0248    4.1137    2.2019 H   0  0  0  1  0  0  0  0  0  0  0  0
    3.1906    2.5058    2.8661 H   0  0  0  1  0  0  0  0  0  0  0  0
   -0.2022    0.2878    0.3614 H   0  0  0  1  0  0  0  0  0  0  0  0
    2.4735    3.3590    5.0446 H   0  0  0  1  0  0  0  0  0  0  0  0
    2.3884    4.9674    4.3665 H   0  0  0  1  0  0  0  0  0  0  0  0
   -1.2751    2.8436    1.3455 H   0  0  0  1  0  0  0  0  0  0  0  0
    4.7192    5.0523    4.0463 H   0  0  0  1  0  0  0  0  0  0  0  0
    4.8938    3.3459    4.3807 H   0  0  0  1  0  0  0  0  0  0  0  0
   -0.6853   -2.4631   -0.7794 H   0  0  0  1  0  0  0  0  0  0  0  0
   -1.8460   -3.9631   -2.1050 H   0  0  0  1  0  0  0  0  0  0  0  0
   -4.2353   -2.7332   -0.7128 H   0  0  0  1  0  0  0  0  0  0  0  0
   -4.2357   -4.2876   -1.5117 H   0  0  0  1  0  0  0  0  0  0  0  0
    4.6648    3.6371    6.6582 H   0  0  0  1  0  0  0  0  0  0  0  0
    3.8189    5.1555    6.4810 H   0  0  0  1  0  0  0  0  0  0  0  0
    5.5413    5.0760    6.1959 H   0  0  0  1  0  0  0  0  0  0  0  0
   -4.1279   -3.2098   -3.6595 H   0  0  0  1  0  0  0  0  0  0  0  0
   -4.0513   -1.6432   -2.8887 H   0  0  0  1  0  0  0  0  0  0  0  0
   -6.2528   -1.7820   -2.1435 H   0  0  0  1  0  0  0  0  0  0  0  0
   -6.3382   -3.4974   -2.4662 H   0  0  0  1  0  0  0  0  0  0  0  0
  1 34  1  0  0  0  0
  2  4  1  0  0  0  0
  3  4  1  0  0  0  0
  4  5  1  0  0  0  0
  4 32  1  0  0  0  0
  6 10  1  0  0  0  0
  6 26  1  0  0  0  0
  6 42  1  0  0  0  0
  7  8  1  0  0  0  0
  7  9  2  0  0  0  0
  7 13  1  0  0  0  0
  8 43  1  0  0  0  0
  8 44  1  0  0  0  0
  8 45  1  0  0  0  0
 10 46  1  0  0  0  0
 10 47  1  0  0  0  0
 10 48  1  0  0  0  0
 11 27  1  0  0  0  0
 11 49  1  0  0  0  0
 12 26  2  0  0  0  0
 13 23  1  0  0  0  0
 13 50  1  0  0  0  0
 14 41  1  0  0  0  0
 15 24  1  0  0  0  0
 15 32  4  0  0  0  0
 15 34  4  0  0  0  0
 16 41  2  0  0  0  0
 17 18  1  0  0  0  0
 17 20  1  0  0  0  0
 17 51  1  0  0  0  0
 17 52  1  0  0  0  0
 18 23  1  0  0  0  0
 18 53  1  0  0  0  0
 18 54  1  0  0  0  0
 19 21  4  0  0  0  0
 19 29  1  0  0  0  0
 19 32  4  0  0  0  0
 20 24  1  0  0  0  0
 20 55  1  0  0  0  0
 20 56  1  0  0  0  0
 21 25  1  0  0  0  0
 21 34  4  0  0  0  0
 22 27  1  0  0  0  0
 22 28  1  0  0  0  0
 22 57  1  0  0  0  0
 22 58  1  0  0  0  0
 23 26  1  0  0  0  0
 23 59  1  0  0  0  0
 24 60  1  0  0  0  0
 24 61  1  0  0  0  0
 25 35  1  0  0  0  0
 25 62  1  0  0  0  0
 25 63  1  0  0  0  0
 27 31  1  0  0  0  0
 27 64  1  0  0  0  0
 28 30  1  0  0  0  0
 28 65  1  0  0  0  0
 28 66  1  0  0  0  0
 29 31  2  0  0  0  0
 29 67  1  0  0  0  0
 30 33  1  0  0  0  0
 30 68  1  0  0  0  0
 30 69  1  0  0  0  0
 31 70  1  0  0  0  0
 33 38  1  0  0  0  0
 33 71  1  0  0  0  0
 33 72  1  0  0  0  0
 35 36  2  0  0  0  0
 35 73  1  0  0  0  0
 36 37  1  0  0  0  0
 36 74  1  0  0  0  0
 37 39  1  0  0  0  0
 37 75  1  0  0  0  0
 37 76  1  0  0  0  0
 38 77  1  0  0  0  0
 38 78  1  0  0  0  0
 38 79  1  0  0  0  0
 39 40  1  0  0  0  0
 39 80  1  0  0  0  0
 39 81  1  0  0  0  0
 40 41  1  0  0  0  0
 40 82  1  0  0  0  0
 40 83  1  0  0  0  0
M  END
> <ConfClashScore>
0 

> <ConfOneFourInteractionScore>
-0.992241 

> <ConfScore>
-0.00705653 

> <ConfScorePBest>
0.00532753 

> <ConfTolerance>
1.89847 

$$$$
9548876
  PyMOL2.2          3D                             0

 83 83  0  0  0  0  0  0  0  0999 V2000
   -5.0027   -1.0415   -0.1142 H   0  0  0  1  0  0  0  0  0  0  0  0
   -4.1262    3.6421    0.0509 H   0  0  0  1  0  0  0  0  0  0  0  0
   -2.8430    3.4403   -1.1175 H   0  0  0  1  0  0  0  0  0  0  0  0
   -3.1737    3.1900   -0.1312 C   0  0  0  1  0  0  0  0  0  0  0  0
   -2.4653    3.5503    0.5852 H   0  0  0  1  0  0  0  0  0  0  0  0
   -8.2210    4.8589    0.1911 N   0  0  0  1  0  0  0  0  0  0  0  0
   -9.2997    5.6569    4.0842 C   0  0  0  1  0  0  0  0  0  0  0  0
  -10.3334    5.5093    5.1838 C   0  0  0  1  0  0  0  0  0  0  0  0
   -9.0418    6.7465    3.5999 O   0  0  0  1  0  0  0  0  0  0  0  0
   -8.9296    4.7434   -1.0748 C   0  0  0  1  0  0  0  0  0  0  0  0
    1.7106    1.9621    0.3980 O   0  0  0  1  0  0  0  0  0  0  0  0
   -9.5261    3.3989    1.2804 O   0  0  0  1  0  0  0  0  0  0  0  0
   -8.7011    4.5224    3.6908 N   0  0  0  1  0  0  0  0  0  0  0  0
   -3.4234   -7.2508    0.0289 O   0  5  0  1  0  0  0  0  0  0  0  0
   -4.4696    1.0511   -0.2089 N   0  0  0  1  0  0  0  0  0  0  0  0
   -2.4991   -8.5018   -1.6310 O   0  0  0  1  0  0  0  0  0  0  0  0
   -5.8807    3.0661    1.5600 C   0  0  0  1  0  0  0  0  0  0  0  0
   -6.7289    3.3508    2.7900 C   0  0  0  1  0  0  0  0  0  0  0  0
   -2.3263    0.7659    0.3063 C   0  0  0  1  0  0  0  0  0  0  0  0
   -6.5657    2.0575    0.6557 C   0  0  0  1  0  0  0  0  0  0  0  0
   -2.9488   -0.4908    0.2956 C   0  0  0  1  0  0  0  0  0  0  0  0
    2.3466    0.2360    1.9752 C   0  0  0  1  0  0  0  0  0  0  0  0
   -7.7927    4.4279    2.5578 C   0  0  0  1  0  0  0  0  0  0  0  0
   -5.7403    1.6839   -0.5637 C   0  0  0  1  0  0  0  0  0  0  0  0
   -2.2845   -1.8163    0.5842 C   0  0  0  1  0  0  0  0  0  0  0  0
   -8.6110    4.2057    1.2894 C   0  0  0  1  0  0  0  0  0  0  0  0
    1.6045    0.5890    0.7005 C   0  0  0  1  0  0  0  0  0  0  0  0
    3.8576    0.2658    1.8202 C   0  0  0  1  0  0  0  0  0  0  0  0
   -0.9209    1.0228    0.4990 C   0  0  0  1  0  0  0  0  0  0  0  0
    4.5973   -0.3307    3.0078 C   0  0  0  1  0  0  0  0  0  0  0  0
    0.1567    0.2381    0.8357 C   0  0  0  1  0  0  0  0  0  0  0  0
   -3.2941    1.7099   -0.0088 C   0  0  0  1  0  0  0  0  0  0  0  0
    6.1092   -0.2299    2.8884 C   0  0  0  1  0  0  0  0  0  0  0  0
   -4.2785   -0.3003   -0.0261 C   0  0  0  1  0  0  0  0  0  0  0  0
   -1.2107   -2.1964   -0.3818 C   0  0  0  1  0  0  0  0  0  0  0  0
   -1.0654   -3.3956   -0.8447 C   0  0  0  1  0  0  0  0  0  0  0  0
   -2.0195   -4.5577   -0.8113 C   0  0  0  1  0  0  0  0  0  0  0  0
    6.8515   -0.9815    3.9814 C   0  0  0  1  0  0  0  0  0  0  0  0
   -2.2962   -5.2058   -2.1452 C   0  0  0  1  0  0  0  0  0  0  0  0
   -3.3430   -6.3078   -2.1327 C   0  0  0  1  0  0  0  0  0  0  0  0
   -3.0344   -7.4719   -1.2554 C   0  0  0  1  0  0  0  0  0  0  0  0
   -7.4303    5.4358    0.2396 H   0  0  0  1  0  0  0  0  0  0  0  0
  -10.5319    6.4668    5.6182 H   0  0  0  1  0  0  0  0  0  0  0  0
   -9.9607    4.8467    5.9367 H   0  0  0  1  0  0  0  0  0  0  0  0
  -11.2369    5.1103    4.7723 H   0  0  0  1  0  0  0  0  0  0  0  0
   -9.3986    3.7836   -1.1354 H   0  0  0  1  0  0  0  0  0  0  0  0
   -8.2364    4.8529   -1.8825 H   0  0  0  1  0  0  0  0  0  0  0  0
   -9.6747    5.5088   -1.1373 H   0  0  0  1  0  0  0  0  0  0  0  0
    2.1085    2.0694   -0.4690 H   0  0  0  1  0  0  0  0  0  0  0  0
   -8.8876    3.7053    4.1988 H   0  0  0  1  0  0  0  0  0  0  0  0
   -4.9344    2.6740    1.8695 H   0  0  0  1  0  0  0  0  0  0  0  0
   -5.7302    3.9770    1.0191 H   0  0  0  1  0  0  0  0  0  0  0  0
   -6.0837    3.6759    3.5793 H   0  0  0  1  0  0  0  0  0  0  0  0
   -7.2202    2.4457    3.0802 H   0  0  0  1  0  0  0  0  0  0  0  0
   -7.4929    2.4751    0.3228 H   0  0  0  1  0  0  0  0  0  0  0  0
   -6.7566    1.1695    1.2213 H   0  0  0  1  0  0  0  0  0  0  0  0
    2.0557   -0.7489    2.2754 H   0  0  0  1  0  0  0  0  0  0  0  0
    2.0695    0.9373    2.7343 H   0  0  0  1  0  0  0  0  0  0  0  0
   -7.2845    5.3637    2.4535 H   0  0  0  1  0  0  0  0  0  0  0  0
   -6.3060    1.0033   -1.1652 H   0  0  0  1  0  0  0  0  0  0  0  0
   -5.5363    2.5718   -1.1248 H   0  0  0  1  0  0  0  0  0  0  0  0
   -3.0361   -2.5776    0.5641 H   0  0  0  1  0  0  0  0  0  0  0  0
   -1.8520   -1.7671    1.5616 H   0  0  0  1  0  0  0  0  0  0  0  0
    2.0160    0.0097   -0.0994 H   0  0  0  1  0  0  0  0  0  0  0  0
    4.1667    1.2836    1.7044 H   0  0  0  1  0  0  0  0  0  0  0  0
    4.1197   -0.2891    0.9437 H   0  0  0  1  0  0  0  0  0  0  0  0
   -0.6663    2.0202    0.3509 H   0  0  0  1  0  0  0  0  0  0  0  0
    4.3315   -1.3640    3.0888 H   0  0  0  1  0  0  0  0  0  0  0  0
    4.2916    0.1872    3.8928 H   0  0  0  1  0  0  0  0  0  0  0  0
   -0.0580   -0.7014    1.2267 H   0  0  0  1  0  0  0  0  0  0  0  0
    6.3855    0.8026    2.9390 H   0  0  0  1  0  0  0  0  0  0  0  0
    6.4023   -0.6320    1.9411 H   0  0  0  1  0  0  0  0  0  0  0  0
   -0.5470   -1.4607   -0.6979 H   0  0  0  1  0  0  0  0  0  0  0  0
   -0.1539   -3.5840   -1.3086 H   0  0  0  1  0  0  0  0  0  0  0  0
   -2.9501   -4.2095   -0.4141 H   0  0  0  1  0  0  0  0  0  0  0  0
   -1.6100   -5.3024   -0.1612 H   0  0  0  1  0  0  0  0  0  0  0  0
    6.6686   -0.5118    4.9252 H   0  0  0  1  0  0  0  0  0  0  0  0
    7.9010   -0.9677    3.7738 H   0  0  0  1  0  0  0  0  0  0  0  0
    6.5072   -1.9941    4.0145 H   0  0  0  1  0  0  0  0  0  0  0  0
   -1.3798   -5.6258   -2.5040 H   0  0  0  1  0  0  0  0  0  0  0  0
   -2.6279   -4.4438   -2.8193 H   0  0  0  1  0  0  0  0  0  0  0  0
   -3.4539   -6.6691   -3.1338 H   0  0  0  1  0  0  0  0  0  0  0  0
   -4.2672   -5.8814   -1.8025 H   0  0  0  1  0  0  0  0  0  0  0  0
  1 34  1  0  0  0  0
  2  4  1  0  0  0  0
  3  4  1  0  0  0  0
  4  5  1  0  0  0  0
  4 32  1  0  0  0  0
  6 10  1  0  0  0  0
  6 26  1  0  0  0  0
  6 42  1  0  0  0  0
  7  8  1  0  0  0  0
  7  9  2  0  0  0  0
  7 13  1  0  0  0  0
  8 43  1  0  0  0  0
  8 44  1  0  0  0  0
  8 45  1  0  0  0  0
 10 46  1  0  0  0  0
 10 47  1  0  0  0  0
 10 48  1  0  0  0  0
 11 27  1  0  0  0  0
 11 49  1  0  0  0  0
 12 26  2  0  0  0  0
 13 23  1  0  0  0  0
 13 50  1  0  0  0  0
 14 41  1  0  0  0  0
 15 24  1  0  0  0  0
 15 32  4  0  0  0  0
 15 34  4  0  0  0  0
 16 41  2  0  0  0  0
 17 18  1  0  0  0  0
 17 20  1  0  0  0  0
 17 51  1  0  0  0  0
 17 52  1  0  0  0  0
 18 23  1  0  0  0  0
 18 53  1  0  0  0  0
 18 54  1  0  0  0  0
 19 21  4  0  0  0  0
 19 29  1  0  0  0  0
 19 32  4  0  0  0  0
 20 24  1  0  0  0  0
 20 55  1  0  0  0  0
 20 56  1  0  0  0  0
 21 25  1  0  0  0  0
 21 34  4  0  0  0  0
 22 27  1  0  0  0  0
 22 28  1  0  0  0  0
 22 57  1  0  0  0  0
 22 58  1  0  0  0  0
 23 26  1  0  0  0  0
 23 59  1  0  0  0  0
 24 60  1  0  0  0  0
 24 61  1  0  0  0  0
 25 35  1  0  0  0  0
 25 62  1  0  0  0  0
 25 63  1  0  0  0  0
 27 31  1  0  0  0  0
 27 64  1  0  0  0  0
 28 30  1  0  0  0  0
 28 65  1  0  0  0  0
 28 66  1  0  0  0  0
 29 31  2  0  0  0  0
 29 67  1  0  0  0  0
 30 33  1  0  0  0  0
 30 68  1  0  0  0  0
 30 69  1  0  0  0  0
 31 70  1  0  0  0  0
 33 38  1  0  0  0  0
 33 71  1  0  0  0  0
 33 72  1  0  0  0  0
 35 36  2  0  0  0  0
 35 73  1  0  0  0  0
 36 37  1  0  0  0  0
 36 74  1  0  0  0  0
 37 39  1  0  0  0  0
 37 75  1  0  0  0  0
 37 76  1  0  0  0  0
 38 77  1  0  0  0  0
 38 78  1  0  0  0  0
 38 79  1  0  0  0  0
 39 40  1  0  0  0  0
 39 80  1  0  0  0  0
 39 81  1  0  0  0  0
 40 41  1  0  0  0  0
 40 82  1  0  0  0  0
 40 83  1  0  0  0  0
M  END
> <ConfClashScore>
0 

> <ConfOneFourInteractionScore>
-0.992809 

> <ConfScore>
-0.00635689 

> <ConfScorePBest>
0.00529905 

> <ConfTolerance>
1.72098 

$$$$
9548876
  PyMOL2.2          3D                             0

 83 83  0  0  0  0  0  0  0  0999 V2000
   -5.0144   -1.0199   -0.1068 H   0  0  0  1  0  0  0  0  0  0  0  0
   -4.1540    3.6161   -0.0314 H   0  0  0  1  0  0  0  0  0  0  0  0
   -2.7877    3.4392   -1.1059 H   0  0  0  1  0  0  0  0  0  0  0  0
   -3.1791    3.1892   -0.1420 C   0  0  0  1  0  0  0  0  0  0  0  0
   -2.5323    3.5761    0.6175 H   0  0  0  1  0  0  0  0  0  0  0  0
   -3.0760    3.6754    3.8327 N   0  0  0  1  0  0  0  0  0  0  0  0
   -4.1825    6.2387    3.9436 C   0  0  0  1  0  0  0  0  0  0  0  0
   -3.8248    7.4751    3.1220 C   0  0  0  1  0  0  0  0  0  0  0  0
   -3.6197    6.0030    5.0110 O   0  0  0  1  0  0  0  0  0  0  0  0
   -1.8227    3.0941    4.2902 C   0  0  0  1  0  0  0  0  0  0  0  0
    1.7945    1.3048    2.5909 O   0  0  0  1  0  0  0  0  0  0  0  0
   -4.3784    2.3146    5.0637 O   0  0  0  1  0  0  0  0  0  0  0  0
   -5.0855    5.4083    3.3682 N   0  0  0  1  0  0  0  0  0  0  0  0
   -2.3976   -8.7921   -1.0226 O   0  5  0  1  0  0  0  0  0  0  0  0
   -4.4536    1.0656   -0.2010 N   0  0  0  1  0  0  0  0  0  0  0  0
   -2.5000   -8.5666    1.2386 O   0  0  0  1  0  0  0  0  0  0  0  0
   -5.7248    2.9184    1.6549 C   0  0  0  1  0  0  0  0  0  0  0  0
   -6.4036    3.3288    2.9475 C   0  0  0  1  0  0  0  0  0  0  0  0
   -2.3093    0.7494    0.2913 C   0  0  0  1  0  0  0  0  0  0  0  0
   -6.5475    2.1449    0.6425 C   0  0  0  1  0  0  0  0  0  0  0  0
   -2.9490   -0.4986    0.2834 C   0  0  0  1  0  0  0  0  0  0  0  0
    2.0957   -0.7477    1.3573 C   0  0  0  1  0  0  0  0  0  0  0  0
   -5.4814    4.0939    3.9011 C   0  0  0  1  0  0  0  0  0  0  0  0
   -5.7437    1.6665   -0.5411 C   0  0  0  1  0  0  0  0  0  0  0  0
   -2.3001   -1.8339    0.5613 C   0  0  0  1  0  0  0  0  0  0  0  0
   -4.2621    3.2657    4.2911 C   0  0  0  1  0  0  0  0  0  0  0  0
    1.3707    0.5996    1.4256 C   0  0  0  1  0  0  0  0  0  0  0  0
    1.8423   -1.5600    2.6159 C   0  0  0  1  0  0  0  0  0  0  0  0
   -0.9042    1.0390    0.5606 C   0  0  0  1  0  0  0  0  0  0  0  0
    2.6819   -2.8105    2.6997 C   0  0  0  1  0  0  0  0  0  0  0  0
   -0.1164    0.4621    1.4428 C   0  0  0  1  0  0  0  0  0  0  0  0
   -3.2672    1.7075   -0.0112 C   0  0  0  1  0  0  0  0  0  0  0  0
    2.5366   -3.6061    3.9733 C   0  0  0  1  0  0  0  0  0  0  0  0
   -4.2793   -0.2889   -0.0241 C   0  0  0  1  0  0  0  0  0  0  0  0
   -2.8245   -2.4675    1.8025 C   0  0  0  1  0  0  0  0  0  0  0  0
   -3.5660   -3.5085    1.7536 C   0  0  0  1  0  0  0  0  0  0  0  0
   -3.8589   -4.4975    0.6572 C   0  0  0  1  0  0  0  0  0  0  0  0
    3.6908   -4.5409    4.2961 C   0  0  0  1  0  0  0  0  0  0  0  0
   -3.2702   -5.8616    0.9191 C   0  0  0  1  0  0  0  0  0  0  0  0
   -3.5207   -6.9027   -0.1640 C   0  0  0  1  0  0  0  0  0  0  0  0
   -2.7642   -8.1543    0.1212 C   0  0  0  1  0  0  0  0  0  0  0  0
   -3.0489    4.3924    3.1651 H   0  0  0  1  0  0  0  0  0  0  0  0
   -3.0617    7.2254    2.4147 H   0  0  0  1  0  0  0  0  0  0  0  0
   -3.4685    8.2453    3.7737 H   0  0  0  1  0  0  0  0  0  0  0  0
   -4.6936    7.8210    2.6019 H   0  0  0  1  0  0  0  0  0  0  0  0
   -1.0909    3.8665    4.4030 H   0  0  0  1  0  0  0  0  0  0  0  0
   -1.4785    2.3790    3.5725 H   0  0  0  1  0  0  0  0  0  0  0  0
   -1.9773    2.6094    5.2315 H   0  0  0  1  0  0  0  0  0  0  0  0
    1.1299    1.2169    3.2780 H   0  0  0  1  0  0  0  0  0  0  0  0
   -5.5069    5.7048    2.5346 H   0  0  0  1  0  0  0  0  0  0  0  0
   -4.8836    2.3104    1.9147 H   0  0  0  1  0  0  0  0  0  0  0  0
   -5.3849    3.8121    1.1747 H   0  0  0  1  0  0  0  0  0  0  0  0
   -6.7487    2.4463    3.4445 H   0  0  0  1  0  0  0  0  0  0  0  0
   -7.2386    3.9538    2.7087 H   0  0  0  1  0  0  0  0  0  0  0  0
   -7.3312    2.7801    0.2859 H   0  0  0  1  0  0  0  0  0  0  0  0
   -6.9726    1.2929    1.1306 H   0  0  0  1  0  0  0  0  0  0  0  0
    3.1469   -0.5758    1.2564 H   0  0  0  1  0  0  0  0  0  0  0  0
    1.7402   -1.2948    0.5092 H   0  0  0  1  0  0  0  0  0  0  0  0
   -6.0393    4.2631    4.7984 H   0  0  0  1  0  0  0  0  0  0  0  0
   -6.3240    0.9357   -1.0646 H   0  0  0  1  0  0  0  0  0  0  0  0
   -5.5625    2.5043   -1.1815 H   0  0  0  1  0  0  0  0  0  0  0  0
   -1.2454   -1.6886    0.6681 H   0  0  0  1  0  0  0  0  0  0  0  0
   -2.4889   -2.4871   -0.2649 H   0  0  0  1  0  0  0  0  0  0  0  0
    1.6415    1.1618    0.5564 H   0  0  0  1  0  0  0  0  0  0  0  0
    0.8103   -1.8422    2.6354 H   0  0  0  1  0  0  0  0  0  0  0  0
    2.0610   -0.9469    3.4651 H   0  0  0  1  0  0  0  0  0  0  0  0
   -0.4739    1.7917   -0.0138 H   0  0  0  1  0  0  0  0  0  0  0  0
    3.7087   -2.5250    2.6048 H   0  0  0  1  0  0  0  0  0  0  0  0
    2.4106   -3.4451    1.8821 H   0  0  0  1  0  0  0  0  0  0  0  0
   -0.5507   -0.1180    2.1887 H   0  0  0  1  0  0  0  0  0  0  0  0
    1.6472   -4.1957    3.8939 H   0  0  0  1  0  0  0  0  0  0  0  0
    2.4357   -2.9149    4.7839 H   0  0  0  1  0  0  0  0  0  0  0  0
   -2.5833   -2.0559    2.7266 H   0  0  0  1  0  0  0  0  0  0  0  0
   -4.0632   -3.7109    2.6443 H   0  0  0  1  0  0  0  0  0  0  0  0
   -3.4526   -4.1213   -0.2583 H   0  0  0  1  0  0  0  0  0  0  0  0
   -4.9201   -4.5969    0.5628 H   0  0  0  1  0  0  0  0  0  0  0  0
    3.8394   -5.2193    3.4821 H   0  0  0  1  0  0  0  0  0  0  0  0
    3.4643   -5.0936    5.1838 H   0  0  0  1  0  0  0  0  0  0  0  0
    4.5813   -3.9679    4.4496 H   0  0  0  1  0  0  0  0  0  0  0  0
   -3.6866   -6.2303    1.8332 H   0  0  0  1  0  0  0  0  0  0  0  0
   -2.2119   -5.7482    1.0288 H   0  0  0  1  0  0  0  0  0  0  0  0
   -3.2056   -6.5097   -1.1080 H   0  0  0  1  0  0  0  0  0  0  0  0
   -4.5666   -7.1257   -0.2011 H   0  0  0  1  0  0  0  0  0  0  0  0
  1 34  1  0  0  0  0
  2  4  1  0  0  0  0
  3  4  1  0  0  0  0
  4  5  1  0  0  0  0
  4 32  1  0  0  0  0
  6 10  1  0  0  0  0
  6 26  1  0  0  0  0
  6 42  1  0  0  0  0
  7  8  1  0  0  0  0
  7  9  2  0  0  0  0
  7 13  1  0  0  0  0
  8 43  1  0  0  0  0
  8 44  1  0  0  0  0
  8 45  1  0  0  0  0
 10 46  1  0  0  0  0
 10 47  1  0  0  0  0
 10 48  1  0  0  0  0
 11 27  1  0  0  0  0
 11 49  1  0  0  0  0
 12 26  2  0  0  0  0
 13 23  1  0  0  0  0
 13 50  1  0  0  0  0
 14 41  1  0  0  0  0
 15 24  1  0  0  0  0
 15 32  4  0  0  0  0
 15 34  4  0  0  0  0
 16 41  2  0  0  0  0
 17 18  1  0  0  0  0
 17 20  1  0  0  0  0
 17 51  1  0  0  0  0
 17 52  1  0  0  0  0
 18 23  1  0  0  0  0
 18 53  1  0  0  0  0
 18 54  1  0  0  0  0
 19 21  4  0  0  0  0
 19 29  1  0  0  0  0
 19 32  4  0  0  0  0
 20 24  1  0  0  0  0
 20 55  1  0  0  0  0
 20 56  1  0  0  0  0
 21 25  1  0  0  0  0
 21 34  4  0  0  0  0
 22 27  1  0  0  0  0
 22 28  1  0  0  0  0
 22 57  1  0  0  0  0
 22 58  1  0  0  0  0
 23 26  1  0  0  0  0
 23 59  1  0  0  0  0
 24 60  1  0  0  0  0
 24 61  1  0  0  0  0
 25 35  1  0  0  0  0
 25 62  1  0  0  0  0
 25 63  1  0  0  0  0
 27 31  1  0  0  0  0
 27 64  1  0  0  0  0
 28 30  1  0  0  0  0
 28 65  1  0  0  0  0
 28 66  1  0  0  0  0
 29 31  2  0  0  0  0
 29 67  1  0  0  0  0
 30 33  1  0  0  0  0
 30 68  1  0  0  0  0
 30 69  1  0  0  0  0
 31 70  1  0  0  0  0
 33 38  1  0  0  0  0
 33 71  1  0  0  0  0
 33 72  1  0  0  0  0
 35 36  2  0  0  0  0
 35 73  1  0  0  0  0
 36 37  1  0  0  0  0
 36 74  1  0  0  0  0
 37 39  1  0  0  0  0
 37 75  1  0  0  0  0
 37 76  1  0  0  0  0
 38 77  1  0  0  0  0
 38 78  1  0  0  0  0
 38 79  1  0  0  0  0
 39 40  1  0  0  0  0
 39 80  1  0  0  0  0
 39 81  1  0  0  0  0
 40 41  1  0  0  0  0
 40 82  1  0  0  0  0
 40 83  1  0  0  0  0
M  END
> <ConfClashScore>
0 

> <ConfOneFourInteractionScore>
-0.98718 

> <ConfScore>
-0.0054641 

> <ConfScorePBest>
0.00527057 

> <ConfTolerance>
2.11849 

$$$$
9548876
  PyMOL2.2          3D                             0

 83 83  0  0  0  0  0  0  0  0999 V2000
   -5.0228   -1.0231   -0.1129 H   0  0  0  1  0  0  0  0  0  0  0  0
   -3.2457    3.4781   -1.1614 H   0  0  0  1  0  0  0  0  0  0  0  0
   -2.2023    3.4963    0.2398 H   0  0  0  1  0  0  0  0  0  0  0  0
   -3.1578    3.1926   -0.1340 C   0  0  0  1  0  0  0  0  0  0  0  0
   -3.9307    3.6660    0.4348 H   0  0  0  1  0  0  0  0  0  0  0  0
   -2.3618    3.7900   -3.3666 N   0  0  0  1  0  0  0  0  0  0  0  0
   -4.5292    4.2724   -7.2206 C   0  0  0  1  0  0  0  0  0  0  0  0
   -4.7134    3.9691   -8.7129 C   0  0  0  1  0  0  0  0  0  0  0  0
   -4.6453    5.4176   -6.7863 O   0  0  0  1  0  0  0  0  0  0  0  0
   -0.9919    3.8233   -2.8764 C   0  0  0  1  0  0  0  0  0  0  0  0
    1.7765    3.1188    1.1165 O   0  0  0  1  0  0  0  0  0  0  0  0
   -1.8963    2.5704   -5.1880 O   0  0  0  1  0  0  0  0  0  0  0  0
   -4.3263    3.2151   -6.4187 N   0  0  0  1  0  0  0  0  0  0  0  0
   -0.0247   -8.4393    3.3000 O   0  5  0  1  0  0  0  0  0  0  0  0
   -4.4728    1.0653   -0.2056 N   0  0  0  1  0  0  0  0  0  0  0  0
    0.5999   -8.5130    1.1139 O   0  0  0  1  0  0  0  0  0  0  0  0
   -4.9392    2.5403   -2.6987 C   0  0  0  1  0  0  0  0  0  0  0  0
   -5.0632    2.4051   -4.2113 C   0  0  0  1  0  0  0  0  0  0  0  0
   -2.3267    0.7598    0.2856 C   0  0  0  1  0  0  0  0  0  0  0  0
   -5.9368    1.5938   -2.0489 C   0  0  0  1  0  0  0  0  0  0  0  0
   -2.9601   -0.4915    0.2769 C   0  0  0  1  0  0  0  0  0  0  0  0
    1.9585    0.7935    0.6461 C   0  0  0  1  0  0  0  0  0  0  0  0
   -4.1415    3.3532   -4.9830 C   0  0  0  1  0  0  0  0  0  0  0  0
   -5.7982    1.6195   -0.5476 C   0  0  0  1  0  0  0  0  0  0  0  0
   -2.2614   -1.7821    0.5585 C   0  0  0  1  0  0  0  0  0  0  0  0
   -2.6885    3.2289   -4.5343 C   0  0  0  1  0  0  0  0  0  0  0  0
    1.3194    2.1205    0.2233 C   0  0  0  1  0  0  0  0  0  0  0  0
    1.8502    0.5208    2.1367 C   0  0  0  1  0  0  0  0  0  0  0  0
   -0.9140    1.0016    0.5621 C   0  0  0  1  0  0  0  0  0  0  0  0
    2.3351   -0.8635    2.5325 C   0  0  0  1  0  0  0  0  0  0  0  0
   -0.1665    1.9967    0.2092 C   0  0  0  1  0  0  0  0  0  0  0  0
   -3.2897    1.7132   -0.0157 C   0  0  0  1  0  0  0  0  0  0  0  0
    2.1324   -1.1742    4.0057 C   0  0  0  1  0  0  0  0  0  0  0  0
   -4.2915   -0.2884   -0.0299 C   0  0  0  1  0  0  0  0  0  0  0  0
   -1.5188   -2.4767   -0.5385 C   0  0  0  1  0  0  0  0  0  0  0  0
   -0.9439   -3.6505   -0.4287 C   0  0  0  1  0  0  0  0  0  0  0  0
   -0.6551   -4.3491    0.8730 C   0  0  0  1  0  0  0  0  0  0  0  0
    2.5737   -2.5765    4.3920 C   0  0  0  1  0  0  0  0  0  0  0  0
   -0.2578   -5.8124    0.7535 C   0  0  0  1  0  0  0  0  0  0  0  0
    0.0603   -6.3977    2.1198 C   0  0  0  1  0  0  0  0  0  0  0  0
    0.2471   -7.8756    2.0925 C   0  0  0  1  0  0  0  0  0  0  0  0
   -3.0692    4.1931   -2.8213 H   0  0  0  1  0  0  0  0  0  0  0  0
   -5.6928    4.2710   -9.0205 H   0  0  0  1  0  0  0  0  0  0  0  0
   -4.5951    2.9190   -8.8805 H   0  0  0  1  0  0  0  0  0  0  0  0
   -3.9808    4.5059   -9.2788 H   0  0  0  1  0  0  0  0  0  0  0  0
   -0.6171    4.8240   -2.9314 H   0  0  0  1  0  0  0  0  0  0  0  0
   -0.3826    3.1809   -3.4773 H   0  0  0  1  0  0  0  0  0  0  0  0
   -0.9689    3.4894   -1.8601 H   0  0  0  1  0  0  0  0  0  0  0  0
    1.7375    2.7862    2.0161 H   0  0  0  1  0  0  0  0  0  0  0  0
   -4.3018    2.3190   -6.8146 H   0  0  0  1  0  0  0  0  0  0  0  0
   -5.1538    3.5472   -2.4072 H   0  0  0  1  0  0  0  0  0  0  0  0
   -3.9463    2.2839   -2.3933 H   0  0  0  1  0  0  0  0  0  0  0  0
   -6.0750    2.6150   -4.4888 H   0  0  0  1  0  0  0  0  0  0  0  0
   -4.8196    1.3993   -4.4831 H   0  0  0  1  0  0  0  0  0  0  0  0
   -5.7575    0.5994   -2.4009 H   0  0  0  1  0  0  0  0  0  0  0  0
   -6.9291    1.8933   -2.3148 H   0  0  0  1  0  0  0  0  0  0  0  0
    2.9946    0.8159    0.3797 H   0  0  0  1  0  0  0  0  0  0  0  0
    1.4714   -0.0005    0.1197 H   0  0  0  1  0  0  0  0  0  0  0  0
   -4.4498    4.3441   -4.7223 H   0  0  0  1  0  0  0  0  0  0  0  0
   -5.8741    2.6260   -0.1926 H   0  0  0  1  0  0  0  0  0  0  0  0
   -6.5673    1.0244   -0.1012 H   0  0  0  1  0  0  0  0  0  0  0  0
   -3.0042   -2.4664    0.9121 H   0  0  0  1  0  0  0  0  0  0  0  0
   -1.5542   -1.5886    1.3378 H   0  0  0  1  0  0  0  0  0  0  0  0
    1.6476    2.3470   -0.7696 H   0  0  0  1  0  0  0  0  0  0  0  0
    0.8243    0.6163    2.4254 H   0  0  0  1  0  0  0  0  0  0  0  0
    2.4371    1.2478    2.6581 H   0  0  0  1  0  0  0  0  0  0  0  0
   -0.4394    0.2670    1.1248 H   0  0  0  1  0  0  0  0  0  0  0  0
    3.3797   -0.9330    2.3116 H   0  0  0  1  0  0  0  0  0  0  0  0
    1.7991   -1.5883    1.9560 H   0  0  0  1  0  0  0  0  0  0  0  0
   -0.6775    2.8343   -0.1353 H   0  0  0  1  0  0  0  0  0  0  0  0
    1.0923   -1.0708    4.2343 H   0  0  0  1  0  0  0  0  0  0  0  0
    2.6964   -0.4704    4.5815 H   0  0  0  1  0  0  0  0  0  0  0  0
   -1.4535   -1.9928   -1.4568 H   0  0  0  1  0  0  0  0  0  0  0  0
   -0.6669   -4.1347   -1.3065 H   0  0  0  1  0  0  0  0  0  0  0  0
   -1.5351   -4.2945    1.4792 H   0  0  0  1  0  0  0  0  0  0  0  0
    0.1447   -3.8284    1.3568 H   0  0  0  1  0  0  0  0  0  0  0  0
    1.8868   -3.2909    3.9886 H   0  0  0  1  0  0  0  0  0  0  0  0
    2.5927   -2.6631    5.4583 H   0  0  0  1  0  0  0  0  0  0  0  0
    3.5521   -2.7627    4.0010 H   0  0  0  1  0  0  0  0  0  0  0  0
    0.6068   -5.8912    0.1281 H   0  0  0  1  0  0  0  0  0  0  0  0
   -1.0660   -6.3608    0.3164 H   0  0  0  1  0  0  0  0  0  0  0  0
   -0.7462   -6.1685    2.7846 H   0  0  0  1  0  0  0  0  0  0  0  0
    0.9607   -5.9472    2.4820 H   0  0  0  1  0  0  0  0  0  0  0  0
  1 34  1  0  0  0  0
  2  4  1  0  0  0  0
  3  4  1  0  0  0  0
  4  5  1  0  0  0  0
  4 32  1  0  0  0  0
  6 10  1  0  0  0  0
  6 26  1  0  0  0  0
  6 42  1  0  0  0  0
  7  8  1  0  0  0  0
  7  9  2  0  0  0  0
  7 13  1  0  0  0  0
  8 43  1  0  0  0  0
  8 44  1  0  0  0  0
  8 45  1  0  0  0  0
 10 46  1  0  0  0  0
 10 47  1  0  0  0  0
 10 48  1  0  0  0  0
 11 27  1  0  0  0  0
 11 49  1  0  0  0  0
 12 26  2  0  0  0  0
 13 23  1  0  0  0  0
 13 50  1  0  0  0  0
 14 41  1  0  0  0  0
 15 24  1  0  0  0  0
 15 32  4  0  0  0  0
 15 34  4  0  0  0  0
 16 41  2  0  0  0  0
 17 18  1  0  0  0  0
 17 20  1  0  0  0  0
 17 51  1  0  0  0  0
 17 52  1  0  0  0  0
 18 23  1  0  0  0  0
 18 53  1  0  0  0  0
 18 54  1  0  0  0  0
 19 21  4  0  0  0  0
 19 29  1  0  0  0  0
 19 32  4  0  0  0  0
 20 24  1  0  0  0  0
 20 55  1  0  0  0  0
 20 56  1  0  0  0  0
 21 25  1  0  0  0  0
 21 34  4  0  0  0  0
 22 27  1  0  0  0  0
 22 28  1  0  0  0  0
 22 57  1  0  0  0  0
 22 58  1  0  0  0  0
 23 26  1  0  0  0  0
 23 59  1  0  0  0  0
 24 60  1  0  0  0  0
 24 61  1  0  0  0  0
 25 35  1  0  0  0  0
 25 62  1  0  0  0  0
 25 63  1  0  0  0  0
 27 31  1  0  0  0  0
 27 64  1  0  0  0  0
 28 30  1  0  0  0  0
 28 65  1  0  0  0  0
 28 66  1  0  0  0  0
 29 31  2  0  0  0  0
 29 67  1  0  0  0  0
 30 33  1  0  0  0  0
 30 68  1  0  0  0  0
 30 69  1  0  0  0  0
 31 70  1  0  0  0  0
 33 38  1  0  0  0  0
 33 71  1  0  0  0  0
 33 72  1  0  0  0  0
 35 36  2  0  0  0  0
 35 73  1  0  0  0  0
 36 37  1  0  0  0  0
 36 74  1  0  0  0  0
 37 39  1  0  0  0  0
 37 75  1  0  0  0  0
 37 76  1  0  0  0  0
 38 77  1  0  0  0  0
 38 78  1  0  0  0  0
 38 79  1  0  0  0  0
 39 40  1  0  0  0  0
 39 80  1  0  0  0  0
 39 81  1  0  0  0  0
 40 41  1  0  0  0  0
 40 82  1  0  0  0  0
 40 83  1  0  0  0  0
M  END
> <ConfClashScore>
0 

> <ConfOneFourInteractionScore>
-0.990318 

> <ConfScore>
-0.00481028 

> <ConfScorePBest>
0.00524209 

> <ConfTolerance>
2.0453 

$$$$
9548876
  PyMOL2.2          3D                             0

 83 83  0  0  0  0  0  0  0  0999 V2000
   -5.0044   -1.0441   -0.1339 H   0  0  0  1  0  0  0  0  0  0  0  0
   -3.4663    3.6416    0.7761 H   0  0  0  1  0  0  0  0  0  0  0  0
   -3.7885    3.5293   -0.9374 H   0  0  0  1  0  0  0  0  0  0  0  0
   -3.1633    3.1822   -0.1415 C   0  0  0  1  0  0  0  0  0  0  0  0
   -2.1454    3.4383   -0.3492 H   0  0  0  1  0  0  0  0  0  0  0  0
  -10.2728    4.7140    1.6743 N   0  0  0  1  0  0  0  0  0  0  0  0
  -10.6249    5.8659   -1.6852 C   0  0  0  1  0  0  0  0  0  0  0  0
  -10.4883    7.3227   -2.0831 C   0  0  0  1  0  0  0  0  0  0  0  0
  -11.6525    5.2327   -1.9236 O   0  0  0  1  0  0  0  0  0  0  0  0
  -11.2395    4.9100    2.7443 C   0  0  0  1  0  0  0  0  0  0  0  0
    1.5747    1.6998    1.7440 O   0  0  0  1  0  0  0  0  0  0  0  0
  -11.4186    3.0760    0.6297 O   0  0  0  1  0  0  0  0  0  0  0  0
   -9.5623    5.3284   -1.0655 N   0  0  0  1  0  0  0  0  0  0  0  0
    2.1112   -2.1341   -0.9219 O   0  5  0  1  0  0  0  0  0  0  0  0
   -4.4652    1.0472   -0.2245 N   0  0  0  1  0  0  0  0  0  0  0  0
    2.9795   -0.5399    0.4489 O   0  0  0  1  0  0  0  0  0  0  0  0
   -7.9676    2.2907    0.6092 C   0  0  0  1  0  0  0  0  0  0  0  0
   -8.0970    3.6723   -0.0137 C   0  0  0  1  0  0  0  0  0  0  0  0
   -2.3235    0.7550    0.2934 C   0  0  0  1  0  0  0  0  0  0  0  0
   -6.5267    1.8562    0.8166 C   0  0  0  1  0  0  0  0  0  0  0  0
   -2.9496   -0.4999    0.2797 C   0  0  0  1  0  0  0  0  0  0  0  0
    2.3340    2.2279   -0.4483 C   0  0  0  1  0  0  0  0  0  0  0  0
   -9.5163    3.9882   -0.5033 C   0  0  0  1  0  0  0  0  0  0  0  0
   -5.7560    1.6865   -0.4815 C   0  0  0  1  0  0  0  0  0  0  0  0
   -2.2876   -1.8317    0.5680 C   0  0  0  1  0  0  0  0  0  0  0  0
  -10.4845    3.8598    0.6690 C   0  0  0  1  0  0  0  0  0  0  0  0
    1.1998    2.3936    0.5686 C   0  0  0  1  0  0  0  0  0  0  0  0
    1.9943    2.7757   -1.8240 C   0  0  0  1  0  0  0  0  0  0  0  0
   -0.9575    1.1057    0.5668 C   0  0  0  1  0  0  0  0  0  0  0  0
    3.1272    2.6289   -2.8281 C   0  0  0  1  0  0  0  0  0  0  0  0
   -0.0890    1.8996   -0.0078 C   0  0  0  1  0  0  0  0  0  0  0  0
   -3.2882    1.7023   -0.0216 C   0  0  0  1  0  0  0  0  0  0  0  0
    2.7495    3.0728   -4.2319 C   0  0  0  1  0  0  0  0  0  0  0  0
   -4.2783   -0.3051   -0.0436 C   0  0  0  1  0  0  0  0  0  0  0  0
   -2.2711   -2.2178    2.0107 C   0  0  0  1  0  0  0  0  0  0  0  0
   -1.1663   -2.4205    2.6880 C   0  0  0  1  0  0  0  0  0  0  0  0
    0.1902   -1.9823    2.2041 C   0  0  0  1  0  0  0  0  0  0  0  0
    3.9086    3.0176   -5.2137 C   0  0  0  1  0  0  0  0  0  0  0  0
    1.0749   -3.1434    1.7805 C   0  0  0  1  0  0  0  0  0  0  0  0
    2.4639   -2.7126    1.3385 C   0  0  0  1  0  0  0  0  0  0  0  0
    2.5571   -1.6714    0.2767 C   0  0  0  1  0  0  0  0  0  0  0  0
   -9.4376    5.2263    1.6918 H   0  0  0  1  0  0  0  0  0  0  0  0
  -11.4565    7.7772   -2.1129 H   0  0  0  1  0  0  0  0  0  0  0  0
  -10.0344    7.3870   -3.0499 H   0  0  0  1  0  0  0  0  0  0  0  0
   -9.8774    7.8319   -1.3672 H   0  0  0  1  0  0  0  0  0  0  0  0
  -10.9482    5.7503    3.3393 H   0  0  0  1  0  0  0  0  0  0  0  0
  -11.2748    4.0340    3.3577 H   0  0  0  1  0  0  0  0  0  0  0  0
  -12.2063    5.0900    2.3227 H   0  0  0  1  0  0  0  0  0  0  0  0
    1.2975    0.7831    1.6772 H   0  0  0  1  0  0  0  0  0  0  0  0
   -8.7568    5.8810   -0.9861 H   0  0  0  1  0  0  0  0  0  0  0  0
   -8.4463    1.5824   -0.0341 H   0  0  0  1  0  0  0  0  0  0  0  0
   -8.4594    2.2996    1.5594 H   0  0  0  1  0  0  0  0  0  0  0  0
   -7.4292    3.7323   -0.8476 H   0  0  0  1  0  0  0  0  0  0  0  0
   -7.8205    4.4018    0.7186 H   0  0  0  1  0  0  0  0  0  0  0  0
   -6.5259    0.9209    1.3364 H   0  0  0  1  0  0  0  0  0  0  0  0
   -6.0316    2.5955    1.4109 H   0  0  0  1  0  0  0  0  0  0  0  0
    2.5547    1.1852   -0.5434 H   0  0  0  1  0  0  0  0  0  0  0  0
    3.1967    2.7436   -0.0813 H   0  0  0  1  0  0  0  0  0  0  0  0
   -9.7866    3.2734   -1.2522 H   0  0  0  1  0  0  0  0  0  0  0  0
   -6.3245    1.0770   -1.1525 H   0  0  0  1  0  0  0  0  0  0  0  0
   -5.5925    2.6473   -0.9232 H   0  0  0  1  0  0  0  0  0  0  0  0
   -1.2756   -1.7827    0.2241 H   0  0  0  1  0  0  0  0  0  0  0  0
   -2.8129   -2.5898    0.0256 H   0  0  0  1  0  0  0  0  0  0  0  0
    1.0945    3.4365    0.7834 H   0  0  0  1  0  0  0  0  0  0  0  0
    1.7597    3.8151   -1.7267 H   0  0  0  1  0  0  0  0  0  0  0  0
    1.1401    2.2501   -2.1970 H   0  0  0  1  0  0  0  0  0  0  0  0
   -0.5744    0.6233    1.4047 H   0  0  0  1  0  0  0  0  0  0  0  0
    3.4173    1.5996   -2.8642 H   0  0  0  1  0  0  0  0  0  0  0  0
    3.9539    3.2215   -2.4958 H   0  0  0  1  0  0  0  0  0  0  0  0
   -0.3205    2.2217   -0.9692 H   0  0  0  1  0  0  0  0  0  0  0  0
    2.3926    4.0804   -4.1846 H   0  0  0  1  0  0  0  0  0  0  0  0
    1.9698    2.4342   -4.5913 H   0  0  0  1  0  0  0  0  0  0  0  0
   -3.1804   -2.3316    2.5025 H   0  0  0  1  0  0  0  0  0  0  0  0
   -1.2305   -2.9079    3.6045 H   0  0  0  1  0  0  0  0  0  0  0  0
    0.6790   -1.4525    2.9948 H   0  0  0  1  0  0  0  0  0  0  0  0
    0.0585   -1.3308    1.3656 H   0  0  0  1  0  0  0  0  0  0  0  0
    3.6516    3.5585   -6.1004 H   0  0  0  1  0  0  0  0  0  0  0  0
    4.1144    1.9982   -5.4651 H   0  0  0  1  0  0  0  0  0  0  0  0
    4.7756    3.4573   -4.7666 H   0  0  0  1  0  0  0  0  0  0  0  0
    0.6018   -3.6508    0.9659 H   0  0  0  1  0  0  0  0  0  0  0  0
    1.1751   -3.8134    2.6088 H   0  0  0  1  0  0  0  0  0  0  0  0
    2.9698   -3.5838    0.9779 H   0  0  0  1  0  0  0  0  0  0  0  0
    2.9721   -2.3360    2.2016 H   0  0  0  1  0  0  0  0  0  0  0  0
  1 34  1  0  0  0  0
  2  4  1  0  0  0  0
  3  4  1  0  0  0  0
  4  5  1  0  0  0  0
  4 32  1  0  0  0  0
  6 10  1  0  0  0  0
  6 26  1  0  0  0  0
  6 42  1  0  0  0  0
  7  8  1  0  0  0  0
  7  9  2  0  0  0  0
  7 13  1  0  0  0  0
  8 43  1  0  0  0  0
  8 44  1  0  0  0  0
  8 45  1  0  0  0  0
 10 46  1  0  0  0  0
 10 47  1  0  0  0  0
 10 48  1  0  0  0  0
 11 27  1  0  0  0  0
 11 49  1  0  0  0  0
 12 26  2  0  0  0  0
 13 23  1  0  0  0  0
 13 50  1  0  0  0  0
 14 41  1  0  0  0  0
 15 24  1  0  0  0  0
 15 32  4  0  0  0  0
 15 34  4  0  0  0  0
 16 41  2  0  0  0  0
 17 18  1  0  0  0  0
 17 20  1  0  0  0  0
 17 51  1  0  0  0  0
 17 52  1  0  0  0  0
 18 23  1  0  0  0  0
 18 53  1  0  0  0  0
 18 54  1  0  0  0  0
 19 21  4  0  0  0  0
 19 29  1  0  0  0  0
 19 32  4  0  0  0  0
 20 24  1  0  0  0  0
 20 55  1  0  0  0  0
 20 56  1  0  0  0  0
 21 25  1  0  0  0  0
 21 34  4  0  0  0  0
 22 27  1  0  0  0  0
 22 28  1  0  0  0  0
 22 57  1  0  0  0  0
 22 58  1  0  0  0  0
 23 26  1  0  0  0  0
 23 59  1  0  0  0  0
 24 60  1  0  0  0  0
 24 61  1  0  0  0  0
 25 35  1  0  0  0  0
 25 62  1  0  0  0  0
 25 63  1  0  0  0  0
 27 31  1  0  0  0  0
 27 64  1  0  0  0  0
 28 30  1  0  0  0  0
 28 65  1  0  0  0  0
 28 66  1  0  0  0  0
 29 31  2  0  0  0  0
 29 67  1  0  0  0  0
 30 33  1  0  0  0  0
 30 68  1  0  0  0  0
 30 69  1  0  0  0  0
 31 70  1  0  0  0  0
 33 38  1  0  0  0  0
 33 71  1  0  0  0  0
 33 72  1  0  0  0  0
 35 36  2  0  0  0  0
 35 73  1  0  0  0  0
 36 37  1  0  0  0  0
 36 74  1  0  0  0  0
 37 39  1  0  0  0  0
 37 75  1  0  0  0  0
 37 76  1  0  0  0  0
 38 77  1  0  0  0  0
 38 78  1  0  0  0  0
 38 79  1  0  0  0  0
 39 40  1  0  0  0  0
 39 80  1  0  0  0  0
 39 81  1  0  0  0  0
 40 41  1  0  0  0  0
 40 82  1  0  0  0  0
 40 83  1  0  0  0  0
M  END
> <ConfClashScore>
0 

> <ConfOneFourInteractionScore>
-0.98891 

> <ConfScore>
-0.00342622 

> <ConfScorePBest>
0.00521361 

> <ConfTolerance>
1.65448 

$$$$
9548876
  PyMOL2.2          3D                             0

 83 83  0  0  0  0  0  0  0  0999 V2000
   -5.0211   -1.0354   -0.0630 H   0  0  0  1  0  0  0  0  0  0  0  0
   -3.9598    3.5619   -0.7430 H   0  0  0  1  0  0  0  0  0  0  0  0
   -2.2268    3.4303   -0.5647 H   0  0  0  1  0  0  0  0  0  0  0  0
   -3.1713    3.1866   -0.1247 C   0  0  0  1  0  0  0  0  0  0  0  0
   -3.2379    3.6304    0.8466 H   0  0  0  1  0  0  0  0  0  0  0  0
   -7.5698    6.9360   -3.3597 N   0  0  0  1  0  0  0  0  0  0  0  0
   -9.3871    4.5794   -5.1152 C   0  0  0  1  0  0  0  0  0  0  0  0
   -9.2601    4.5163   -6.6115 C   0  0  0  1  0  0  0  0  0  0  0  0
  -10.4644    4.6770   -4.5563 O   0  0  0  1  0  0  0  0  0  0  0  0
   -7.4986    8.3804   -3.1964 C   0  0  0  1  0  0  0  0  0  0  0  0
    2.1257    0.1786    1.9045 O   0  0  0  1  0  0  0  0  0  0  0  0
   -9.0723    6.6022   -1.7111 O   0  0  0  1  0  0  0  0  0  0  0  0
   -8.2815    4.5270   -4.3669 N   0  0  0  1  0  0  0  0  0  0  0  0
    4.8715   -4.7228    2.3169 O   0  5  0  1  0  0  0  0  0  0  0  0
   -4.4803    1.0548   -0.1676 N   0  0  0  1  0  0  0  0  0  0  0  0
    3.7487   -3.7533    4.0584 O   0  0  0  1  0  0  0  0  0  0  0  0
   -7.0826    2.4651   -2.6591 C   0  0  0  1  0  0  0  0  0  0  0  0
   -7.1567    3.9258   -2.2581 C   0  0  0  1  0  0  0  0  0  0  0  0
   -2.3228    0.7566    0.2757 C   0  0  0  1  0  0  0  0  0  0  0  0
   -5.8056    1.8301   -2.1434 C   0  0  0  1  0  0  0  0  0  0  0  0
   -2.9519   -0.4969    0.2808 C   0  0  0  1  0  0  0  0  0  0  0  0
    2.0811   -0.4550   -0.4330 C   0  0  0  1  0  0  0  0  0  0  0  0
   -8.3142    4.6791   -2.9200 C   0  0  0  1  0  0  0  0  0  0  0  0
   -5.7141    1.6800   -0.6450 C   0  0  0  1  0  0  0  0  0  0  0  0
   -2.2855   -1.8269    0.5425 C   0  0  0  1  0  0  0  0  0  0  0  0
   -8.3383    6.1671   -2.5830 C   0  0  0  1  0  0  0  0  0  0  0  0
    1.4951    0.4526    0.6598 C   0  0  0  1  0  0  0  0  0  0  0  0
    3.5497   -0.1415   -0.6629 C   0  0  0  1  0  0  0  0  0  0  0  0
   -0.9162    1.0574    0.5132 C   0  0  0  1  0  0  0  0  0  0  0  0
    4.4887   -1.1192    0.0229 C   0  0  0  1  0  0  0  0  0  0  0  0
    0.0274    0.1728    0.7312 C   0  0  0  1  0  0  0  0  0  0  0  0
   -3.2955    1.7067   -0.0039 C   0  0  0  1  0  0  0  0  0  0  0  0
    5.9556   -0.7479   -0.1215 C   0  0  0  1  0  0  0  0  0  0  0  0
   -4.2905   -0.2982    0.0038 C   0  0  0  1  0  0  0  0  0  0  0  0
   -2.0917   -2.2219    1.9720 C   0  0  0  1  0  0  0  0  0  0  0  0
   -0.9502   -2.6144    2.4960 C   0  0  0  1  0  0  0  0  0  0  0  0
    0.2862   -3.0449    1.7559 C   0  0  0  1  0  0  0  0  0  0  0  0
    6.3970   -0.5871   -1.5671 C   0  0  0  1  0  0  0  0  0  0  0  0
    1.4241   -3.3396    2.7288 C   0  0  0  1  0  0  0  0  0  0  0  0
    2.6908   -3.7165    1.9781 C   0  0  0  1  0  0  0  0  0  0  0  0
    3.8224   -4.0672    2.8818 C   0  0  0  1  0  0  0  0  0  0  0  0
   -7.0356    6.5127   -4.0638 H   0  0  0  1  0  0  0  0  0  0  0  0
   -9.1902    5.5084   -7.0062 H   0  0  0  1  0  0  0  0  0  0  0  0
  -10.1197    4.0291   -7.0219 H   0  0  0  1  0  0  0  0  0  0  0  0
   -8.3797    3.9665   -6.8715 H   0  0  0  1  0  0  0  0  0  0  0  0
   -7.4296    8.8455   -4.1576 H   0  0  0  1  0  0  0  0  0  0  0  0
   -6.6353    8.6313   -2.6163 H   0  0  0  1  0  0  0  0  0  0  0  0
   -8.3785    8.7263   -2.6954 H   0  0  0  1  0  0  0  0  0  0  0  0
    2.9769   -0.2367    1.7479 H   0  0  0  1  0  0  0  0  0  0  0  0
   -7.4185    4.3811   -4.8077 H   0  0  0  1  0  0  0  0  0  0  0  0
   -7.1042    2.3927   -3.7265 H   0  0  0  1  0  0  0  0  0  0  0  0
   -7.9233    1.9456   -2.2488 H   0  0  0  1  0  0  0  0  0  0  0  0
   -6.2393    4.4010   -2.5367 H   0  0  0  1  0  0  0  0  0  0  0  0
   -7.2792    3.9804   -1.1966 H   0  0  0  1  0  0  0  0  0  0  0  0
   -4.9836    2.4351   -2.4647 H   0  0  0  1  0  0  0  0  0  0  0  0
   -5.7232    0.8557   -2.5778 H   0  0  0  1  0  0  0  0  0  0  0  0
    1.5423   -0.2996   -1.3443 H   0  0  0  1  0  0  0  0  0  0  0  0
    1.9836   -1.4766   -0.1302 H   0  0  0  1  0  0  0  0  0  0  0  0
   -9.2251    4.2517   -2.5560 H   0  0  0  1  0  0  0  0  0  0  0  0
   -5.7851    2.6539   -0.2076 H   0  0  0  1  0  0  0  0  0  0  0  0
   -6.5388    1.0811   -0.3192 H   0  0  0  1  0  0  0  0  0  0  0  0
   -1.3202   -1.7999    0.0818 H   0  0  0  1  0  0  0  0  0  0  0  0
   -2.8823   -2.5834    0.0772 H   0  0  0  1  0  0  0  0  0  0  0  0
    1.6447    1.4744    0.3799 H   0  0  0  1  0  0  0  0  0  0  0  0
    3.7497    0.8406   -0.2882 H   0  0  0  1  0  0  0  0  0  0  0  0
    3.7416   -0.1682   -1.7152 H   0  0  0  1  0  0  0  0  0  0  0  0
   -0.6370    2.0593    0.5094 H   0  0  0  1  0  0  0  0  0  0  0  0
    4.3405   -2.0887   -0.4048 H   0  0  0  1  0  0  0  0  0  0  0  0
    4.2470   -1.1477    1.0648 H   0  0  0  1  0  0  0  0  0  0  0  0
   -0.2668   -0.7953    0.9717 H   0  0  0  1  0  0  0  0  0  0  0  0
    6.5464   -1.5174    0.3300 H   0  0  0  1  0  0  0  0  0  0  0  0
    6.1233    0.1772    0.3893 H   0  0  0  1  0  0  0  0  0  0  0  0
   -2.9208   -2.1834    2.5986 H   0  0  0  1  0  0  0  0  0  0  0  0
   -0.8973   -2.6284    3.5346 H   0  0  0  1  0  0  0  0  0  0  0  0
    0.5872   -2.2627    1.0907 H   0  0  0  1  0  0  0  0  0  0  0  0
    0.0684   -3.9284    1.1929 H   0  0  0  1  0  0  0  0  0  0  0  0
    7.3765   -1.0000   -1.6894 H   0  0  0  1  0  0  0  0  0  0  0  0
    6.4140    0.4522   -1.8210 H   0  0  0  1  0  0  0  0  0  0  0  0
    5.7112   -1.1003   -2.2083 H   0  0  0  1  0  0  0  0  0  0  0  0
    1.1395   -4.1506    3.3662 H   0  0  0  1  0  0  0  0  0  0  0  0
    1.6133   -2.4691    3.3214 H   0  0  0  1  0  0  0  0  0  0  0  0
    2.9855   -2.8873    1.3694 H   0  0  0  1  0  0  0  0  0  0  0  0
    2.4791   -4.5598    1.3545 H   0  0  0  1  0  0  0  0  0  0  0  0
  1 34  1  0  0  0  0
  2  4  1  0  0  0  0
  3  4  1  0  0  0  0
  4  5  1  0  0  0  0
  4 32  1  0  0  0  0
  6 10  1  0  0  0  0
  6 26  1  0  0  0  0
  6 42  1  0  0  0  0
  7  8  1  0  0  0  0
  7  9  2  0  0  0  0
  7 13  1  0  0  0  0
  8 43  1  0  0  0  0
  8 44  1  0  0  0  0
  8 45  1  0  0  0  0
 10 46  1  0  0  0  0
 10 47  1  0  0  0  0
 10 48  1  0  0  0  0
 11 27  1  0  0  0  0
 11 49  1  0  0  0  0
 12 26  2  0  0  0  0
 13 23  1  0  0  0  0
 13 50  1  0  0  0  0
 14 41  1  0  0  0  0
 15 24  1  0  0  0  0
 15 32  4  0  0  0  0
 15 34  4  0  0  0  0
 16 41  2  0  0  0  0
 17 18  1  0  0  0  0
 17 20  1  0  0  0  0
 17 51  1  0  0  0  0
 17 52  1  0  0  0  0
 18 23  1  0  0  0  0
 18 53  1  0  0  0  0
 18 54  1  0  0  0  0
 19 21  4  0  0  0  0
 19 29  1  0  0  0  0
 19 32  4  0  0  0  0
 20 24  1  0  0  0  0
 20 55  1  0  0  0  0
 20 56  1  0  0  0  0
 21 25  1  0  0  0  0
 21 34  4  0  0  0  0
 22 27  1  0  0  0  0
 22 28  1  0  0  0  0
 22 57  1  0  0  0  0
 22 58  1  0  0  0  0
 23 26  1  0  0  0  0
 23 59  1  0  0  0  0
 24 60  1  0  0  0  0
 24 61  1  0  0  0  0
 25 35  1  0  0  0  0
 25 62  1  0  0  0  0
 25 63  1  0  0  0  0
 27 31  1  0  0  0  0
 27 64  1  0  0  0  0
 28 30  1  0  0  0  0
 28 65  1  0  0  0  0
 28 66  1  0  0  0  0
 29 31  2  0  0  0  0
 29 67  1  0  0  0  0
 30 33  1  0  0  0  0
 30 68  1  0  0  0  0
 30 69  1  0  0  0  0
 31 70  1  0  0  0  0
 33 38  1  0  0  0  0
 33 71  1  0  0  0  0
 33 72  1  0  0  0  0
 35 36  2  0  0  0  0
 35 73  1  0  0  0  0
 36 37  1  0  0  0  0
 36 74  1  0  0  0  0
 37 39  1  0  0  0  0
 37 75  1  0  0  0  0
 37 76  1  0  0  0  0
 38 77  1  0  0  0  0
 38 78  1  0  0  0  0
 38 79  1  0  0  0  0
 39 40  1  0  0  0  0
 39 80  1  0  0  0  0
 39 81  1  0  0  0  0
 40 41  1  0  0  0  0
 40 82  1  0  0  0  0
 40 83  1  0  0  0  0
M  END
> <ConfClashScore>
0 

> <ConfOneFourInteractionScore>
-0.978994 

> <ConfScore>
-0.0027336 

> <ConfScorePBest>
0.00518512 

> <ConfTolerance>
1.76016 

$$$$
9548876
  PyMOL2.2          3D                             0

 83 83  0  0  0  0  0  0  0  0999 V2000
   -5.0148   -1.0255   -0.1169 H   0  0  0  1  0  0  0  0  0  0  0  0
   -2.6271    3.5846    0.6831 H   0  0  0  1  0  0  0  0  0  0  0  0
   -4.1766    3.6038   -0.1239 H   0  0  0  1  0  0  0  0  0  0  0  0
   -3.1906    3.1885   -0.1358 C   0  0  0  1  0  0  0  0  0  0  0  0
   -2.7074    3.4416   -1.0564 H   0  0  0  1  0  0  0  0  0  0  0  0
  -10.3801    3.8829   -5.7314 N   0  0  0  1  0  0  0  0  0  0  0  0
  -10.9696    4.3629   -2.8544 C   0  0  0  1  0  0  0  0  0  0  0  0
  -12.2034    3.7870   -2.1873 C   0  0  0  1  0  0  0  0  0  0  0  0
  -10.8755    5.5663   -3.0926 O   0  0  0  1  0  0  0  0  0  0  0  0
  -10.9088    4.2675   -7.0316 C   0  0  0  1  0  0  0  0  0  0  0  0
    1.8377    1.0620    1.1176 O   0  0  0  1  0  0  0  0  0  0  0  0
   -8.2651    4.5487   -6.1438 O   0  0  0  1  0  0  0  0  0  0  0  0
  -10.0059    3.4797   -3.1600 N   0  0  0  1  0  0  0  0  0  0  0  0
   -1.2895   -8.4795    3.4959 O   0  5  0  1  0  0  0  0  0  0  0  0
   -4.4595    1.0618   -0.2032 N   0  0  0  1  0  0  0  0  0  0  0  0
   -0.5211   -7.7232    1.4759 O   0  0  0  1  0  0  0  0  0  0  0  0
   -7.2742    2.7239   -2.1940 C   0  0  0  1  0  0  0  0  0  0  0  0
   -7.6689    2.8798   -3.6417 C   0  0  0  1  0  0  0  0  0  0  0  0
   -2.3144    0.7494    0.2883 C   0  0  0  1  0  0  0  0  0  0  0  0
   -6.0545    1.8407   -1.9940 C   0  0  0  1  0  0  0  0  0  0  0  0
   -2.9509   -0.5003    0.2755 C   0  0  0  1  0  0  0  0  0  0  0  0
    1.7163    2.3938   -0.8524 C   0  0  0  1  0  0  0  0  0  0  0  0
   -8.7914    3.8642   -3.9103 C   0  0  0  1  0  0  0  0  0  0  0  0
   -5.7266    1.7109   -0.5408 C   0  0  0  1  0  0  0  0  0  0  0  0
   -2.2482   -1.8074    0.5566 C   0  0  0  1  0  0  0  0  0  0  0  0
   -9.1104    4.1084   -5.3822 C   0  0  0  1  0  0  0  0  0  0  0  0
    1.2225    2.2256    0.5867 C   0  0  0  1  0  0  0  0  0  0  0  0
    1.1655    3.6691   -1.4646 C   0  0  0  1  0  0  0  0  0  0  0  0
   -0.9013    0.9868    0.5662 C   0  0  0  1  0  0  0  0  0  0  0  0
    1.5148    3.8322   -2.9045 C   0  0  0  1  0  0  0  0  0  0  0  0
   -0.2644    2.1549    0.6168 C   0  0  0  1  0  0  0  0  0  0  0  0
   -3.2748    1.7061   -0.0107 C   0  0  0  1  0  0  0  0  0  0  0  0
    0.7275    3.0305   -3.9112 C   0  0  0  1  0  0  0  0  0  0  0  0
   -4.2816   -0.2929   -0.0313 C   0  0  0  1  0  0  0  0  0  0  0  0
   -1.5230   -1.7901    1.8647 C   0  0  0  1  0  0  0  0  0  0  0  0
   -1.7238   -2.6365    2.8434 C   0  0  0  1  0  0  0  0  0  0  0  0
   -2.4523   -3.9409    2.7717 C   0  0  0  1  0  0  0  0  0  0  0  0
    1.0586    3.3815   -5.3526 C   0  0  0  1  0  0  0  0  0  0  0  0
   -1.5279   -5.1308    2.6972 C   0  0  0  1  0  0  0  0  0  0  0  0
   -2.2112   -6.4851    2.6006 C   0  0  0  1  0  0  0  0  0  0  0  0
   -1.2507   -7.6139    2.4476 C   0  0  0  1  0  0  0  0  0  0  0  0
  -10.9762    3.4433   -5.0897 H   0  0  0  1  0  0  0  0  0  0  0  0
  -12.7918    3.2661   -2.9135 H   0  0  0  1  0  0  0  0  0  0  0  0
  -12.7821    4.5804   -1.7624 H   0  0  0  1  0  0  0  0  0  0  0  0
  -11.9071    3.1080   -1.4153 H   0  0  0  1  0  0  0  0  0  0  0  0
  -11.9584    4.0623   -7.0653 H   0  0  0  1  0  0  0  0  0  0  0  0
  -10.4118    3.7097   -7.7976 H   0  0  0  1  0  0  0  0  0  0  0  0
  -10.7448    5.3132   -7.1879 H   0  0  0  1  0  0  0  0  0  0  0  0
    1.1668    0.4890    1.4961 H   0  0  0  1  0  0  0  0  0  0  0  0
  -10.1111    2.5477   -2.8759 H   0  0  0  1  0  0  0  0  0  0  0  0
   -8.0966    2.2921   -1.6628 H   0  0  0  1  0  0  0  0  0  0  0  0
   -7.0604    3.6932   -1.7945 H   0  0  0  1  0  0  0  0  0  0  0  0
   -7.9773    1.9214   -4.0042 H   0  0  0  1  0  0  0  0  0  0  0  0
   -6.8069    3.2066   -4.1849 H   0  0  0  1  0  0  0  0  0  0  0  0
   -5.2200    2.2741   -2.5046 H   0  0  0  1  0  0  0  0  0  0  0  0
   -6.2545    0.8698   -2.3966 H   0  0  0  1  0  0  0  0  0  0  0  0
    1.3921    1.5567   -1.4347 H   0  0  0  1  0  0  0  0  0  0  0  0
    2.7854    2.4373   -0.8538 H   0  0  0  1  0  0  0  0  0  0  0  0
   -8.4684    4.8042   -3.5141 H   0  0  0  1  0  0  0  0  0  0  0  0
   -5.7055    2.6966   -0.1251 H   0  0  0  1  0  0  0  0  0  0  0  0
   -6.5112    1.1464   -0.0818 H   0  0  0  1  0  0  0  0  0  0  0  0
   -1.5426   -1.9942   -0.2258 H   0  0  0  1  0  0  0  0  0  0  0  0
   -2.9754   -2.5920    0.5765 H   0  0  0  1  0  0  0  0  0  0  0  0
    1.5302    3.0833    1.1476 H   0  0  0  1  0  0  0  0  0  0  0  0
    1.5602    4.5033   -0.9232 H   0  0  0  1  0  0  0  0  0  0  0  0
    0.0994    3.6563   -1.3734 H   0  0  0  1  0  0  0  0  0  0  0  0
   -0.3222    0.1419    0.7465 H   0  0  0  1  0  0  0  0  0  0  0  0
    2.5443    3.5629   -3.0162 H   0  0  0  1  0  0  0  0  0  0  0  0
    1.3874    4.8660   -3.1492 H   0  0  0  1  0  0  0  0  0  0  0  0
   -0.8159    3.0344    0.6785 H   0  0  0  1  0  0  0  0  0  0  0  0
   -0.3145    3.2113   -3.7488 H   0  0  0  1  0  0  0  0  0  0  0  0
    0.9381    1.9927   -3.7578 H   0  0  0  1  0  0  0  0  0  0  0  0
   -0.8057   -1.0506    2.0075 H   0  0  0  1  0  0  0  0  0  0  0  0
   -1.3345   -2.3733    3.7712 H   0  0  0  1  0  0  0  0  0  0  0  0
   -3.0731   -3.9368    1.9002 H   0  0  0  1  0  0  0  0  0  0  0  0
   -3.0631   -4.0383    3.6449 H   0  0  0  1  0  0  0  0  0  0  0  0
    1.3859    4.3987   -5.4064 H   0  0  0  1  0  0  0  0  0  0  0  0
    0.1865    3.2551   -5.9595 H   0  0  0  1  0  0  0  0  0  0  0  0
    1.8364    2.7376   -5.7066 H   0  0  0  1  0  0  0  0  0  0  0  0
   -0.9192   -5.1308    3.5772 H   0  0  0  1  0  0  0  0  0  0  0  0
   -0.9073   -5.0124    1.8337 H   0  0  0  1  0  0  0  0  0  0  0  0
   -2.8650   -6.4771    1.7536 H   0  0  0  1  0  0  0  0  0  0  0  0
   -2.7826   -6.6426    3.4914 H   0  0  0  1  0  0  0  0  0  0  0  0
  1 34  1  0  0  0  0
  2  4  1  0  0  0  0
  3  4  1  0  0  0  0
  4  5  1  0  0  0  0
  4 32  1  0  0  0  0
  6 10  1  0  0  0  0
  6 26  1  0  0  0  0
  6 42  1  0  0  0  0
  7  8  1  0  0  0  0
  7  9  2  0  0  0  0
  7 13  1  0  0  0  0
  8 43  1  0  0  0  0
  8 44  1  0  0  0  0
  8 45  1  0  0  0  0
 10 46  1  0  0  0  0
 10 47  1  0  0  0  0
 10 48  1  0  0  0  0
 11 27  1  0  0  0  0
 11 49  1  0  0  0  0
 12 26  2  0  0  0  0
 13 23  1  0  0  0  0
 13 50  1  0  0  0  0
 14 41  1  0  0  0  0
 15 24  1  0  0  0  0
 15 32  4  0  0  0  0
 15 34  4  0  0  0  0
 16 41  2  0  0  0  0
 17 18  1  0  0  0  0
 17 20  1  0  0  0  0
 17 51  1  0  0  0  0
 17 52  1  0  0  0  0
 18 23  1  0  0  0  0
 18 53  1  0  0  0  0
 18 54  1  0  0  0  0
 19 21  4  0  0  0  0
 19 29  1  0  0  0  0
 19 32  4  0  0  0  0
 20 24  1  0  0  0  0
 20 55  1  0  0  0  0
 20 56  1  0  0  0  0
 21 25  1  0  0  0  0
 21 34  4  0  0  0  0
 22 27  1  0  0  0  0
 22 28  1  0  0  0  0
 22 57  1  0  0  0  0
 22 58  1  0  0  0  0
 23 26  1  0  0  0  0
 23 59  1  0  0  0  0
 24 60  1  0  0  0  0
 24 61  1  0  0  0  0
 25 35  1  0  0  0  0
 25 62  1  0  0  0  0
 25 63  1  0  0  0  0
 27 31  1  0  0  0  0
 27 64  1  0  0  0  0
 28 30  1  0  0  0  0
 28 65  1  0  0  0  0
 28 66  1  0  0  0  0
 29 31  2  0  0  0  0
 29 67  1  0  0  0  0
 30 33  1  0  0  0  0
 30 68  1  0  0  0  0
 30 69  1  0  0  0  0
 31 70  1  0  0  0  0
 33 38  1  0  0  0  0
 33 71  1  0  0  0  0
 33 72  1  0  0  0  0
 35 36  2  0  0  0  0
 35 73  1  0  0  0  0
 36 37  1  0  0  0  0
 36 74  1  0  0  0  0
 37 39  1  0  0  0  0
 37 75  1  0  0  0  0
 37 76  1  0  0  0  0
 38 77  1  0  0  0  0
 38 78  1  0  0  0  0
 38 79  1  0  0  0  0
 39 40  1  0  0  0  0
 39 80  1  0  0  0  0
 39 81  1  0  0  0  0
 40 41  1  0  0  0  0
 40 82  1  0  0  0  0
 40 83  1  0  0  0  0
M  END
> <ConfClashScore>
0 

> <ConfOneFourInteractionScore>
-0.984625 

> <ConfScore>
-0.00174415 

> <ConfScorePBest>
0.00515664 

> <ConfTolerance>
1.74351 

$$$$
9548876
  PyMOL2.2          3D                             0

 83 83  0  0  0  0  0  0  0  0999 V2000
   -5.0176   -1.0274   -0.0760 H   0  0  0  1  0  0  0  0  0  0  0  0
   -3.0170    3.5702    0.8598 H   0  0  0  1  0  0  0  0  0  0  0  0
   -4.1061    3.5700   -0.5063 H   0  0  0  1  0  0  0  0  0  0  0  0
   -3.1856    3.1820   -0.1229 C   0  0  0  1  0  0  0  0  0  0  0  0
   -2.3804    3.4735   -0.7644 H   0  0  0  1  0  0  0  0  0  0  0  0
   -5.1444    0.1580   -6.6047 N   0  0  0  1  0  0  0  0  0  0  0  0
   -3.5050    2.1486   -7.7052 C   0  0  0  1  0  0  0  0  0  0  0  0
   -3.7044    3.0234   -8.9276 C   0  0  0  1  0  0  0  0  0  0  0  0
   -2.8971    1.0931   -7.7744 O   0  0  0  1  0  0  0  0  0  0  0  0
   -5.5958   -1.1824   -6.9476 C   0  0  0  1  0  0  0  0  0  0  0  0
    1.5445    2.9641   -1.0282 O   0  0  0  1  0  0  0  0  0  0  0  0
   -3.9472   -0.4910   -4.8251 O   0  0  0  1  0  0  0  0  0  0  0  0
   -4.0365    2.6124   -6.5631 N   0  0  0  1  0  0  0  0  0  0  0  0
   -8.0445   -5.0941    1.9751 O   0  5  0  1  0  0  0  0  0  0  0  0
   -4.4497    1.0526   -0.2303 N   0  0  0  1  0  0  0  0  0  0  0  0
   -7.0954   -6.8604    0.8696 O   0  0  0  1  0  0  0  0  0  0  0  0
   -4.7890    1.6645   -2.9439 C   0  0  0  1  0  0  0  0  0  0  0  0
   -4.7737    2.4706   -4.2285 C   0  0  0  1  0  0  0  0  0  0  0  0
   -2.3040    0.7420    0.2596 C   0  0  0  1  0  0  0  0  0  0  0  0
   -5.6610    2.3877   -1.9356 C   0  0  0  1  0  0  0  0  0  0  0  0
   -2.9484   -0.5034    0.2892 C   0  0  0  1  0  0  0  0  0  0  0  0
    1.4983    3.5836    1.2642 C   0  0  0  1  0  0  0  0  0  0  0  0
   -3.9128    1.8410   -5.3314 C   0  0  0  1  0  0  0  0  0  0  0  0
   -5.7145    1.6989   -0.5816 C   0  0  0  1  0  0  0  0  0  0  0  0
   -2.3029   -1.8331    0.6004 C   0  0  0  1  0  0  0  0  0  0  0  0
   -4.3628    0.3993   -5.5484 C   0  0  0  1  0  0  0  0  0  0  0  0
    1.1127    2.5144    0.2365 C   0  0  0  1  0  0  0  0  0  0  0  0
    2.9784    3.9291    1.2479 C   0  0  0  1  0  0  0  0  0  0  0  0
   -0.9082    1.0842    0.5047 C   0  0  0  1  0  0  0  0  0  0  0  0
    3.3721    4.9425    2.3090 C   0  0  0  1  0  0  0  0  0  0  0  0
   -0.3597    2.2554    0.2861 C   0  0  0  1  0  0  0  0  0  0  0  0
   -3.2600    1.6950   -0.0642 C   0  0  0  1  0  0  0  0  0  0  0  0
    4.8638    5.2274    2.3457 C   0  0  0  1  0  0  0  0  0  0  0  0
   -4.2794   -0.2972   -0.0172 C   0  0  0  1  0  0  0  0  0  0  0  0
   -2.5668   -2.9043   -0.4095 C   0  0  0  1  0  0  0  0  0  0  0  0
   -2.9434   -4.1279   -0.1240 C   0  0  0  1  0  0  0  0  0  0  0  0
   -3.3188   -4.6144    1.2502 C   0  0  0  1  0  0  0  0  0  0  0  0
    5.2584    6.2306    3.4131 C   0  0  0  1  0  0  0  0  0  0  0  0
   -4.5058   -5.5638    1.2420 C   0  0  0  1  0  0  0  0  0  0  0  0
   -5.8444   -4.8538    1.1206 C   0  0  0  1  0  0  0  0  0  0  0  0
   -7.0445   -5.7190    1.2974 C   0  0  0  1  0  0  0  0  0  0  0  0
   -5.4235    0.9096   -7.1681 H   0  0  0  1  0  0  0  0  0  0  0  0
   -3.1493    3.9308   -8.8118 H   0  0  0  1  0  0  0  0  0  0  0  0
   -4.7439    3.2528   -9.0359 H   0  0  0  1  0  0  0  0  0  0  0  0
   -3.3608    2.5038   -9.7976 H   0  0  0  1  0  0  0  0  0  0  0  0
   -6.6602   -1.2362   -6.8519 H   0  0  0  1  0  0  0  0  0  0  0  0
   -5.1423   -1.8912   -6.2868 H   0  0  0  1  0  0  0  0  0  0  0  0
   -5.3170   -1.4052   -7.9564 H   0  0  0  1  0  0  0  0  0  0  0  0
    2.4982    3.0735   -1.0209 H   0  0  0  1  0  0  0  0  0  0  0  0
   -4.5088    3.4711   -6.5569 H   0  0  0  1  0  0  0  0  0  0  0  0
   -3.7936    1.5745   -2.5620 H   0  0  0  1  0  0  0  0  0  0  0  0
   -5.1883    0.6901   -3.1336 H   0  0  0  1  0  0  0  0  0  0  0  0
   -4.3890    3.4454   -4.0127 H   0  0  0  1  0  0  0  0  0  0  0  0
   -5.7779    2.5545   -4.5883 H   0  0  0  1  0  0  0  0  0  0  0  0
   -6.6553    2.4453   -2.3265 H   0  0  0  1  0  0  0  0  0  0  0  0
   -5.2732    3.3755   -1.7985 H   0  0  0  1  0  0  0  0  0  0  0  0
    1.2447    3.2238    2.2395 H   0  0  0  1  0  0  0  0  0  0  0  0
    0.9401    4.4722    1.0550 H   0  0  0  1  0  0  0  0  0  0  0  0
   -2.8924    1.8382   -5.0094 H   0  0  0  1  0  0  0  0  0  0  0  0
   -5.9456    2.4291    0.1656 H   0  0  0  1  0  0  0  0  0  0  0  0
   -6.4843    0.9560   -0.6051 H   0  0  0  1  0  0  0  0  0  0  0  0
   -2.6709   -2.1692    1.5473 H   0  0  0  1  0  0  0  0  0  0  0  0
   -1.2450   -1.6845    0.6607 H   0  0  0  1  0  0  0  0  0  0  0  0
    1.6219    1.6086    0.4916 H   0  0  0  1  0  0  0  0  0  0  0  0
    3.2221    4.3320    0.2870 H   0  0  0  1  0  0  0  0  0  0  0  0
    3.5380    3.0319    1.4114 H   0  0  0  1  0  0  0  0  0  0  0  0
   -0.2949    0.3356    0.8855 H   0  0  0  1  0  0  0  0  0  0  0  0
    3.0752    4.5651    3.2652 H   0  0  0  1  0  0  0  0  0  0  0  0
    2.8564    5.8588    2.1109 H   0  0  0  1  0  0  0  0  0  0  0  0
   -0.9959    3.0643    0.1360 H   0  0  0  1  0  0  0  0  0  0  0  0
    5.1591    5.6128    1.3922 H   0  0  0  1  0  0  0  0  0  0  0  0
    5.3800    4.3096    2.5353 H   0  0  0  1  0  0  0  0  0  0  0  0
   -2.4424   -2.6608   -1.4129 H   0  0  0  1  0  0  0  0  0  0  0  0
   -2.9859   -4.8130   -0.9053 H   0  0  0  1  0  0  0  0  0  0  0  0
   -3.5643   -3.7673    1.8561 H   0  0  0  1  0  0  0  0  0  0  0  0
   -2.4780   -5.1240    1.6725 H   0  0  0  1  0  0  0  0  0  0  0  0
    4.9400    5.8765    4.3712 H   0  0  0  1  0  0  0  0  0  0  0  0
    4.7920    7.1715    3.2078 H   0  0  0  1  0  0  0  0  0  0  0  0
    6.3216    6.3514    3.4130 H   0  0  0  1  0  0  0  0  0  0  0  0
   -4.4997   -6.1225    2.1546 H   0  0  0  1  0  0  0  0  0  0  0  0
   -4.4000   -6.2322    0.4133 H   0  0  0  1  0  0  0  0  0  0  0  0
   -5.8965   -4.4119    0.1476 H   0  0  0  1  0  0  0  0  0  0  0  0
   -5.8790   -4.0853    1.8643 H   0  0  0  1  0  0  0  0  0  0  0  0
  1 34  1  0  0  0  0
  2  4  1  0  0  0  0
  3  4  1  0  0  0  0
  4  5  1  0  0  0  0
  4 32  1  0  0  0  0
  6 10  1  0  0  0  0
  6 26  1  0  0  0  0
  6 42  1  0  0  0  0
  7  8  1  0  0  0  0
  7  9  2  0  0  0  0
  7 13  1  0  0  0  0
  8 43  1  0  0  0  0
  8 44  1  0  0  0  0
  8 45  1  0  0  0  0
 10 46  1  0  0  0  0
 10 47  1  0  0  0  0
 10 48  1  0  0  0  0
 11 27  1  0  0  0  0
 11 49  1  0  0  0  0
 12 26  2  0  0  0  0
 13 23  1  0  0  0  0
 13 50  1  0  0  0  0
 14 41  1  0  0  0  0
 15 24  1  0  0  0  0
 15 32  4  0  0  0  0
 15 34  4  0  0  0  0
 16 41  2  0  0  0  0
 17 18  1  0  0  0  0
 17 20  1  0  0  0  0
 17 51  1  0  0  0  0
 17 52  1  0  0  0  0
 18 23  1  0  0  0  0
 18 53  1  0  0  0  0
 18 54  1  0  0  0  0
 19 21  4  0  0  0  0
 19 29  1  0  0  0  0
 19 32  4  0  0  0  0
 20 24  1  0  0  0  0
 20 55  1  0  0  0  0
 20 56  1  0  0  0  0
 21 25  1  0  0  0  0
 21 34  4  0  0  0  0
 22 27  1  0  0  0  0
 22 28  1  0  0  0  0
 22 57  1  0  0  0  0
 22 58  1  0  0  0  0
 23 26  1  0  0  0  0
 23 59  1  0  0  0  0
 24 60  1  0  0  0  0
 24 61  1  0  0  0  0
 25 35  1  0  0  0  0
 25 62  1  0  0  0  0
 25 63  1  0  0  0  0
 27 31  1  0  0  0  0
 27 64  1  0  0  0  0
 28 30  1  0  0  0  0
 28 65  1  0  0  0  0
 28 66  1  0  0  0  0
 29 31  2  0  0  0  0
 29 67  1  0  0  0  0
 30 33  1  0  0  0  0
 30 68  1  0  0  0  0
 30 69  1  0  0  0  0
 31 70  1  0  0  0  0
 33 38  1  0  0  0  0
 33 71  1  0  0  0  0
 33 72  1  0  0  0  0
 35 36  2  0  0  0  0
 35 73  1  0  0  0  0
 36 37  1  0  0  0  0
 36 74  1  0  0  0  0
 37 39  1  0  0  0  0
 37 75  1  0  0  0  0
 37 76  1  0  0  0  0
 38 77  1  0  0  0  0
 38 78  1  0  0  0  0
 38 79  1  0  0  0  0
 39 40  1  0  0  0  0
 39 80  1  0  0  0  0
 39 81  1  0  0  0  0
 40 41  1  0  0  0  0
 40 82  1  0  0  0  0
 40 83  1  0  0  0  0
M  END
> <ConfClashScore>
0.0007453 

> <ConfOneFourInteractionScore>
-0.975684 

> <ConfScore>
0.00170364 

> <ConfScorePBest>
0.00512816 

> <ConfTolerance>
1.99305 

$$$$
9548876
  PyMOL2.2          3D                             0

 83 83  0  0  0  0  0  0  0  0999 V2000
   -5.0116   -1.0389   -0.1325 H   0  0  0  1  0  0  0  0  0  0  0  0
   -4.1195    3.6427    0.0436 H   0  0  0  1  0  0  0  0  0  0  0  0
   -2.8460    3.4373   -1.1348 H   0  0  0  1  0  0  0  0  0  0  0  0
   -3.1701    3.1872   -0.1462 C   0  0  0  1  0  0  0  0  0  0  0  0
   -2.4549    3.5442    0.5652 H   0  0  0  1  0  0  0  0  0  0  0  0
  -10.8668    4.9266    3.4173 N   0  0  0  1  0  0  0  0  0  0  0  0
   -9.8780    7.0512    1.7423 C   0  0  0  1  0  0  0  0  0  0  0  0
   -9.3630    8.3638    2.3000 C   0  0  0  1  0  0  0  0  0  0  0  0
  -11.0231    6.9417    1.3360 O   0  0  0  1  0  0  0  0  0  0  0  0
  -12.0944    4.7457    4.1777 C   0  0  0  1  0  0  0  0  0  0  0  0
    1.6659    3.3174    1.2959 O   0  0  0  1  0  0  0  0  0  0  0  0
  -11.3188    3.3145    1.9280 O   0  0  0  1  0  0  0  0  0  0  0  0
   -8.9976    6.0378    1.7288 N   0  0  0  1  0  0  0  0  0  0  0  0
    0.3478   -8.3740   -2.9228 O   0  5  0  1  0  0  0  0  0  0  0  0
   -4.4722    1.0523   -0.2260 N   0  0  0  1  0  0  0  0  0  0  0  0
    1.1735   -7.8404   -0.8824 O   0  0  0  1  0  0  0  0  0  0  0  0
   -7.5964    3.1477    0.5017 C   0  0  0  1  0  0  0  0  0  0  0  0
   -8.2202    3.7255    1.7617 C   0  0  0  1  0  0  0  0  0  0  0  0
   -2.3304    0.7605    0.2916 C   0  0  0  1  0  0  0  0  0  0  0  0
   -6.3939    2.2599    0.7773 C   0  0  0  1  0  0  0  0  0  0  0  0
   -2.9566   -0.4944    0.2798 C   0  0  0  1  0  0  0  0  0  0  0  0
    0.9208    2.1660    3.2400 C   0  0  0  1  0  0  0  0  0  0  0  0
   -9.4002    4.6615    1.4810 C   0  0  0  1  0  0  0  0  0  0  0  0
   -5.7631    1.6913   -0.4834 C   0  0  0  1  0  0  0  0  0  0  0  0
   -2.2465   -1.7939    0.5772 C   0  0  0  1  0  0  0  0  0  0  0  0
  -10.5999    4.2212    2.3146 C   0  0  0  1  0  0  0  0  0  0  0  0
    0.9915    2.1353    1.7129 C   0  0  0  1  0  0  0  0  0  0  0  0
    0.3975    0.8736    3.8451 C   0  0  0  1  0  0  0  0  0  0  0  0
   -0.9224    1.0112    0.5839 C   0  0  0  1  0  0  0  0  0  0  0  0
    0.2586    0.9294    5.3577 C   0  0  0  1  0  0  0  0  0  0  0  0
   -0.3959    2.0663    1.1584 C   0  0  0  1  0  0  0  0  0  0  0  0
   -3.2951    1.7075   -0.0244 C   0  0  0  1  0  0  0  0  0  0  0  0
   -0.3758   -0.3344    5.8835 C   0  0  0  1  0  0  0  0  0  0  0  0
   -4.2854   -0.2998   -0.0434 C   0  0  0  1  0  0  0  0  0  0  0  0
   -2.7211   -2.9577   -0.2251 C   0  0  0  1  0  0  0  0  0  0  0  0
   -2.0299   -3.8726   -0.8574 C   0  0  0  1  0  0  0  0  0  0  0  0
   -0.5323   -3.9472   -0.9909 C   0  0  0  1  0  0  0  0  0  0  0  0
    0.4459   -1.6010    5.7076 C   0  0  0  1  0  0  0  0  0  0  0  0
    0.0741   -5.3227   -0.7661 C   0  0  0  1  0  0  0  0  0  0  0  0
   -0.1997   -6.2327   -1.9525 C   0  0  0  1  0  0  0  0  0  0  0  0
    0.5036   -7.5428   -1.8577 C   0  0  0  1  0  0  0  0  0  0  0  0
  -10.2132    5.5890    3.7248 H   0  0  0  1  0  0  0  0  0  0  0  0
   -8.3633    8.2321    2.6580 H   0  0  0  1  0  0  0  0  0  0  0  0
   -9.9917    8.6796    3.1062 H   0  0  0  1  0  0  0  0  0  0  0  0
   -9.3707    9.1060    1.5293 H   0  0  0  1  0  0  0  0  0  0  0  0
  -12.5092    3.7832    3.9625 H   0  0  0  1  0  0  0  0  0  0  0  0
  -12.7971    5.5055    3.9061 H   0  0  0  1  0  0  0  0  0  0  0  0
  -11.8793    4.8154    5.2236 H   0  0  0  1  0  0  0  0  0  0  0  0
    1.0211    3.9954    1.0812 H   0  0  0  1  0  0  0  0  0  0  0  0
   -8.0508    6.2317    1.8916 H   0  0  0  1  0  0  0  0  0  0  0  0
   -7.2840    3.9574   -0.1242 H   0  0  0  1  0  0  0  0  0  0  0  0
   -8.3369    2.5674   -0.0080 H   0  0  0  1  0  0  0  0  0  0  0  0
   -7.4697    4.2749    2.2905 H   0  0  0  1  0  0  0  0  0  0  0  0
   -8.5663    2.9165    2.3705 H   0  0  0  1  0  0  0  0  0  0  0  0
   -6.7081    1.4456    1.3963 H   0  0  0  1  0  0  0  0  0  0  0  0
   -5.6568    2.8379    1.2944 H   0  0  0  1  0  0  0  0  0  0  0  0
    0.2725    2.9650    3.5336 H   0  0  0  1  0  0  0  0  0  0  0  0
    1.9043    2.3454    3.6216 H   0  0  0  1  0  0  0  0  0  0  0  0
   -9.6614    4.5590    0.4484 H   0  0  0  1  0  0  0  0  0  0  0  0
   -6.4279    0.9649   -0.9018 H   0  0  0  1  0  0  0  0  0  0  0  0
   -5.6179    2.4876   -1.1832 H   0  0  0  1  0  0  0  0  0  0  0  0
   -2.3886   -2.0224    1.6129 H   0  0  0  1  0  0  0  0  0  0  0  0
   -1.2036   -1.6567    0.3815 H   0  0  0  1  0  0  0  0  0  0  0  0
    1.5351    1.2661    1.4064 H   0  0  0  1  0  0  0  0  0  0  0  0
    1.0745    0.0836    3.5955 H   0  0  0  1  0  0  0  0  0  0  0  0
   -0.5640    0.6666    3.4236 H   0  0  0  1  0  0  0  0  0  0  0  0
   -0.2567    0.2633    0.3029 H   0  0  0  1  0  0  0  0  0  0  0  0
   -0.3535    1.7659    5.6232 H   0  0  0  1  0  0  0  0  0  0  0  0
    1.2284    1.0434    5.7951 H   0  0  0  1  0  0  0  0  0  0  0  0
   -0.9873    2.9185    1.2340 H   0  0  0  1  0  0  0  0  0  0  0  0
   -1.3068   -0.4722    5.3745 H   0  0  0  1  0  0  0  0  0  0  0  0
   -0.5569   -0.2017    6.9296 H   0  0  0  1  0  0  0  0  0  0  0  0
   -3.7541   -3.0575   -0.2925 H   0  0  0  1  0  0  0  0  0  0  0  0
   -2.5746   -4.6299   -1.3172 H   0  0  0  1  0  0  0  0  0  0  0  0
   -0.1034   -3.2765   -0.2760 H   0  0  0  1  0  0  0  0  0  0  0  0
   -0.2729   -3.6295   -1.9792 H   0  0  0  1  0  0  0  0  0  0  0  0
    1.1439   -1.6888    6.5137 H   0  0  0  1  0  0  0  0  0  0  0  0
    0.9769   -1.5554    4.7797 H   0  0  0  1  0  0  0  0  0  0  0  0
   -0.2047   -2.4505    5.7054 H   0  0  0  1  0  0  0  0  0  0  0  0
   -0.3538   -5.7553    0.1140 H   0  0  0  1  0  0  0  0  0  0  0  0
    1.1317   -5.2230   -0.6371 H   0  0  0  1  0  0  0  0  0  0  0  0
    0.1231   -5.7366   -2.8439 H   0  0  0  1  0  0  0  0  0  0  0  0
   -1.2527   -6.4145   -2.0063 H   0  0  0  1  0  0  0  0  0  0  0  0
  1 34  1  0  0  0  0
  2  4  1  0  0  0  0
  3  4  1  0  0  0  0
  4  5  1  0  0  0  0
  4 32  1  0  0  0  0
  6 10  1  0  0  0  0
  6 26  1  0  0  0  0
  6 42  1  0  0  0  0
  7  8  1  0  0  0  0
  7  9  2  0  0  0  0
  7 13  1  0  0  0  0
  8 43  1  0  0  0  0
  8 44  1  0  0  0  0
  8 45  1  0  0  0  0
 10 46  1  0  0  0  0
 10 47  1  0  0  0  0
 10 48  1  0  0  0  0
 11 27  1  0  0  0  0
 11 49  1  0  0  0  0
 12 26  2  0  0  0  0
 13 23  1  0  0  0  0
 13 50  1  0  0  0  0
 14 41  1  0  0  0  0
 15 24  1  0  0  0  0
 15 32  4  0  0  0  0
 15 34  4  0  0  0  0
 16 41  2  0  0  0  0
 17 18  1  0  0  0  0
 17 20  1  0  0  0  0
 17 51  1  0  0  0  0
 17 52  1  0  0  0  0
 18 23  1  0  0  0  0
 18 53  1  0  0  0  0
 18 54  1  0  0  0  0
 19 21  4  0  0  0  0
 19 29  1  0  0  0  0
 19 32  4  0  0  0  0
 20 24  1  0  0  0  0
 20 55  1  0  0  0  0
 20 56  1  0  0  0  0
 21 25  1  0  0  0  0
 21 34  4  0  0  0  0
 22 27  1  0  0  0  0
 22 28  1  0  0  0  0
 22 57  1  0  0  0  0
 22 58  1  0  0  0  0
 23 26  1  0  0  0  0
 23 59  1  0  0  0  0
 24 60  1  0  0  0  0
 24 61  1  0  0  0  0
 25 35  1  0  0  0  0
 25 62  1  0  0  0  0
 25 63  1  0  0  0  0
 27 31  1  0  0  0  0
 27 64  1  0  0  0  0
 28 30  1  0  0  0  0
 28 65  1  0  0  0  0
 28 66  1  0  0  0  0
 29 31  2  0  0  0  0
 29 67  1  0  0  0  0
 30 33  1  0  0  0  0
 30 68  1  0  0  0  0
 30 69  1  0  0  0  0
 31 70  1  0  0  0  0
 33 38  1  0  0  0  0
 33 71  1  0  0  0  0
 33 72  1  0  0  0  0
 35 36  2  0  0  0  0
 35 73  1  0  0  0  0
 36 37  1  0  0  0  0
 36 74  1  0  0  0  0
 37 39  1  0  0  0  0
 37 75  1  0  0  0  0
 37 76  1  0  0  0  0
 38 77  1  0  0  0  0
 38 78  1  0  0  0  0
 38 79  1  0  0  0  0
 39 40  1  0  0  0  0
 39 80  1  0  0  0  0
 39 81  1  0  0  0  0
 40 41  1  0  0  0  0
 40 82  1  0  0  0  0
 40 83  1  0  0  0  0
M  END
> <ConfClashScore>
0 

> <ConfOneFourInteractionScore>
-0.983466 

> <ConfScore>
0.00497087 

> <ConfScorePBest>
0.00509968 

> <ConfTolerance>
1.89395 

$$$$
9548876
  PyMOL2.2          3D                             0

 83 83  0  0  0  0  0  0  0  0999 V2000
   -4.9971   -1.0411   -0.1052 H   0  0  0  1  0  0  0  0  0  0  0  0
   -3.3249    3.4802   -1.1573 H   0  0  0  1  0  0  0  0  0  0  0  0
   -2.1987    3.5002    0.1783 H   0  0  0  1  0  0  0  0  0  0  0  0
   -3.1736    3.1927   -0.1378 C   0  0  0  1  0  0  0  0  0  0  0  0
   -3.9129    3.6607    0.4780 H   0  0  0  1  0  0  0  0  0  0  0  0
   -9.7143    4.9878   -2.4146 N   0  0  0  1  0  0  0  0  0  0  0  0
   -9.4926    4.5849   -6.2759 C   0  0  0  1  0  0  0  0  0  0  0  0
   -9.2792    5.2071   -7.6273 C   0  0  0  1  0  0  0  0  0  0  0  0
  -10.5785    4.2325   -5.8528 O   0  0  0  1  0  0  0  0  0  0  0  0
   -9.9578    5.9846   -1.3828 C   0  0  0  1  0  0  0  0  0  0  0  0
    1.6960    3.0272    0.9731 O   0  0  0  1  0  0  0  0  0  0  0  0
   -7.7945    5.9042   -3.1186 O   0  0  0  1  0  0  0  0  0  0  0  0
   -8.3981    4.4273   -5.5261 N   0  0  0  1  0  0  0  0  0  0  0  0
    1.5514   -7.9239    1.3272 O   0  5  0  1  0  0  0  0  0  0  0  0
   -4.4676    1.0524   -0.2033 N   0  0  0  1  0  0  0  0  0  0  0  0
    2.9417   -6.6917    2.6399 O   0  0  0  1  0  0  0  0  0  0  0  0
   -7.2020    2.6108   -2.4046 C   0  0  0  1  0  0  0  0  0  0  0  0
   -7.1704    3.0950   -3.8415 C   0  0  0  1  0  0  0  0  0  0  0  0
   -2.3182    0.7691    0.2868 C   0  0  0  1  0  0  0  0  0  0  0  0
   -5.8901    1.9387   -2.0336 C   0  0  0  1  0  0  0  0  0  0  0  0
   -2.9393   -0.4884    0.2816 C   0  0  0  1  0  0  0  0  0  0  0  0
    0.7119    2.9109    3.1866 C   0  0  0  1  0  0  0  0  0  0  0  0
   -8.4499    3.8709   -4.1823 C   0  0  0  1  0  0  0  0  0  0  0  0
   -5.7442    1.6845   -0.5429 C   0  0  0  1  0  0  0  0  0  0  0  0
   -2.3248   -1.8415    0.5519 C   0  0  0  1  0  0  0  0  0  0  0  0
   -8.6408    5.0302   -3.2089 C   0  0  0  1  0  0  0  0  0  0  0  0
    0.8718    2.2287    1.8190 C   0  0  0  1  0  0  0  0  0  0  0  0
    1.9774    2.8833    4.0245 C   0  0  0  1  0  0  0  0  0  0  0  0
   -0.9089    1.0253    0.5612 C   0  0  0  1  0  0  0  0  0  0  0  0
    1.7025    3.3821    5.4301 C   0  0  0  1  0  0  0  0  0  0  0  0
   -0.4971    2.0711    1.2373 C   0  0  0  1  0  0  0  0  0  0  0  0
   -3.2908    1.7123   -0.0160 C   0  0  0  1  0  0  0  0  0  0  0  0
    2.8549    3.1625    6.3787 C   0  0  0  1  0  0  0  0  0  0  0  0
   -4.2729   -0.2991   -0.0245 C   0  0  0  1  0  0  0  0  0  0  0  0
   -1.5506   -1.8659    1.8315 C   0  0  0  1  0  0  0  0  0  0  0  0
   -0.3741   -2.4049    2.0317 C   0  0  0  1  0  0  0  0  0  0  0  0
    0.3355   -3.3760    1.1425 C   0  0  0  1  0  0  0  0  0  0  0  0
    3.2217    1.7103    6.6375 C   0  0  0  1  0  0  0  0  0  0  0  0
    0.7524   -4.6480    1.8627 C   0  0  0  1  0  0  0  0  0  0  0  0
    1.5771   -5.5874    0.9979 C   0  0  0  1  0  0  0  0  0  0  0  0
    2.1089   -6.7580    1.7509 C   0  0  0  1  0  0  0  0  0  0  0  0
  -10.3602    4.2600   -2.5310 H   0  0  0  1  0  0  0  0  0  0  0  0
   -9.6476    6.2117   -7.6202 H   0  0  0  1  0  0  0  0  0  0  0  0
   -9.8041    4.6402   -8.3675 H   0  0  0  1  0  0  0  0  0  0  0  0
   -8.2340    5.2124   -7.8562 H   0  0  0  1  0  0  0  0  0  0  0  0
   -9.1178    6.0266   -0.7214 H   0  0  0  1  0  0  0  0  0  0  0  0
  -10.8341    5.7182   -0.8295 H   0  0  0  1  0  0  0  0  0  0  0  0
  -10.1006    6.9420   -1.8387 H   0  0  0  1  0  0  0  0  0  0  0  0
    2.5561    3.1456    1.3828 H   0  0  0  1  0  0  0  0  0  0  0  0
   -7.5302    4.6958   -5.8937 H   0  0  0  1  0  0  0  0  0  0  0  0
   -8.0010    1.9088   -2.2884 H   0  0  0  1  0  0  0  0  0  0  0  0
   -7.3637    3.4465   -1.7563 H   0  0  0  1  0  0  0  0  0  0  0  0
   -7.0873    2.2513   -4.4943 H   0  0  0  1  0  0  0  0  0  0  0  0
   -6.3246    3.7362   -3.9772 H   0  0  0  1  0  0  0  0  0  0  0  0
   -5.0849    2.5680   -2.3508 H   0  0  0  1  0  0  0  0  0  0  0  0
   -5.8330    1.0006   -2.5450 H   0  0  0  1  0  0  0  0  0  0  0  0
   -0.0638    2.4098    3.7271 H   0  0  0  1  0  0  0  0  0  0  0  0
    0.4335    3.9315    3.0262 H   0  0  0  1  0  0  0  0  0  0  0  0
   -9.2856    3.2082   -4.0974 H   0  0  0  1  0  0  0  0  0  0  0  0
   -5.8116    2.6197   -0.0274 H   0  0  0  1  0  0  0  0  0  0  0  0
   -6.5396    1.0432   -0.2250 H   0  0  0  1  0  0  0  0  0  0  0  0
   -1.6655   -2.0875   -0.2542 H   0  0  0  1  0  0  0  0  0  0  0  0
   -3.1068   -2.5696    0.6086 H   0  0  0  1  0  0  0  0  0  0  0  0
    1.3067    1.2615    1.9616 H   0  0  0  1  0  0  0  0  0  0  0  0
    2.7145    3.5102    3.5676 H   0  0  0  1  0  0  0  0  0  0  0  0
    2.3437    1.8791    4.0739 H   0  0  0  1  0  0  0  0  0  0  0  0
   -0.2013    0.3508    0.2063 H   0  0  0  1  0  0  0  0  0  0  0  0
    0.8461    2.8664    5.8116 H   0  0  0  1  0  0  0  0  0  0  0  0
    1.4965    4.4310    5.3836 H   0  0  0  1  0  0  0  0  0  0  0  0
   -1.1729    2.8488    1.3794 H   0  0  0  1  0  0  0  0  0  0  0  0
    2.5996    3.6101    7.3164 H   0  0  0  1  0  0  0  0  0  0  0  0
    3.7148    3.6521    5.9715 H   0  0  0  1  0  0  0  0  0  0  0  0
   -1.9948   -1.4048    2.6510 H   0  0  0  1  0  0  0  0  0  0  0  0
    0.1205   -2.1278    2.9036 H   0  0  0  1  0  0  0  0  0  0  0  0
    1.2123   -2.9026    0.7524 H   0  0  0  1  0  0  0  0  0  0  0  0
   -0.3169   -3.6392    0.3364 H   0  0  0  1  0  0  0  0  0  0  0  0
    2.3885    1.2047    7.0790 H   0  0  0  1  0  0  0  0  0  0  0  0
    4.0583    1.6672    7.3032 H   0  0  0  1  0  0  0  0  0  0  0  0
    3.4766    1.2368    5.7125 H   0  0  0  1  0  0  0  0  0  0  0  0
   -0.1303   -5.1642    2.1779 H   0  0  0  1  0  0  0  0  0  0  0  0
    1.3333   -4.3778    2.7196 H   0  0  0  1  0  0  0  0  0  0  0  0
    2.4021   -5.0403    0.5919 H   0  0  0  1  0  0  0  0  0  0  0  0
    0.9600   -5.9468    0.2011 H   0  0  0  1  0  0  0  0  0  0  0  0
  1 34  1  0  0  0  0
  2  4  1  0  0  0  0
  3  4  1  0  0  0  0
  4  5  1  0  0  0  0
  4 32  1  0  0  0  0
  6 10  1  0  0  0  0
  6 26  1  0  0  0  0
  6 42  1  0  0  0  0
  7  8  1  0  0  0  0
  7  9  2  0  0  0  0
  7 13  1  0  0  0  0
  8 43  1  0  0  0  0
  8 44  1  0  0  0  0
  8 45  1  0  0  0  0
 10 46  1  0  0  0  0
 10 47  1  0  0  0  0
 10 48  1  0  0  0  0
 11 27  1  0  0  0  0
 11 49  1  0  0  0  0
 12 26  2  0  0  0  0
 13 23  1  0  0  0  0
 13 50  1  0  0  0  0
 14 41  1  0  0  0  0
 15 24  1  0  0  0  0
 15 32  4  0  0  0  0
 15 34  4  0  0  0  0
 16 41  2  0  0  0  0
 17 18  1  0  0  0  0
 17 20  1  0  0  0  0
 17 51  1  0  0  0  0
 17 52  1  0  0  0  0
 18 23  1  0  0  0  0
 18 53  1  0  0  0  0
 18 54  1  0  0  0  0
 19 21  4  0  0  0  0
 19 29  1  0  0  0  0
 19 32  4  0  0  0  0
 20 24  1  0  0  0  0
 20 55  1  0  0  0  0
 20 56  1  0  0  0  0
 21 25  1  0  0  0  0
 21 34  4  0  0  0  0
 22 27  1  0  0  0  0
 22 28  1  0  0  0  0
 22 57  1  0  0  0  0
 22 58  1  0  0  0  0
 23 26  1  0  0  0  0
 23 59  1  0  0  0  0
 24 60  1  0  0  0  0
 24 61  1  0  0  0  0
 25 35  1  0  0  0  0
 25 62  1  0  0  0  0
 25 63  1  0  0  0  0
 27 31  1  0  0  0  0
 27 64  1  0  0  0  0
 28 30  1  0  0  0  0
 28 65  1  0  0  0  0
 28 66  1  0  0  0  0
 29 31  2  0  0  0  0
 29 67  1  0  0  0  0
 30 33  1  0  0  0  0
 30 68  1  0  0  0  0
 30 69  1  0  0  0  0
 31 70  1  0  0  0  0
 33 38  1  0  0  0  0
 33 71  1  0  0  0  0
 33 72  1  0  0  0  0
 35 36  2  0  0  0  0
 35 73  1  0  0  0  0
 36 37  1  0  0  0  0
 36 74  1  0  0  0  0
 37 39  1  0  0  0  0
 37 75  1  0  0  0  0
 37 76  1  0  0  0  0
 38 77  1  0  0  0  0
 38 78  1  0  0  0  0
 38 79  1  0  0  0  0
 39 40  1  0  0  0  0
 39 80  1  0  0  0  0
 39 81  1  0  0  0  0
 40 41  1  0  0  0  0
 40 82  1  0  0  0  0
 40 83  1  0  0  0  0
M  END
> <ConfClashScore>
0 

> <ConfOneFourInteractionScore>
-0.993773 

> <ConfScore>
0.00499861 

> <ConfScorePBest>
0.0050712 

> <ConfTolerance>
1.62282 

$$$$
9548876
  PyMOL2.2          3D                             0

 83 83  0  0  0  0  0  0  0  0999 V2000
   -4.9973   -1.0310   -0.1101 H   0  0  0  1  0  0  0  0  0  0  0  0
   -2.8782    3.6121    0.8100 H   0  0  0  1  0  0  0  0  0  0  0  0
   -4.1104    3.6112   -0.4286 H   0  0  0  1  0  0  0  0  0  0  0  0
   -3.1675    3.2001   -0.1341 C   0  0  0  1  0  0  0  0  0  0  0  0
   -2.4280    3.4400   -0.8693 H   0  0  0  1  0  0  0  0  0  0  0  0
   -3.5606   -0.4269   -5.5753 N   0  0  0  1  0  0  0  0  0  0  0  0
   -5.0819    1.4995   -7.2228 C   0  0  0  1  0  0  0  0  0  0  0  0
   -5.6864    1.5022   -8.6133 C   0  0  0  1  0  0  0  0  0  0  0  0
   -4.0106    2.0379   -6.9971 O   0  0  0  1  0  0  0  0  0  0  0  0
   -2.2276   -1.0077   -5.5139 C   0  0  0  1  0  0  0  0  0  0  0  0
    1.6451    3.5846    0.2757 O   0  0  0  1  0  0  0  0  0  0  0  0
   -3.3158    0.8851   -3.7573 O   0  0  0  1  0  0  0  0  0  0  0  0
   -5.7988    0.8730   -6.2764 N   0  0  0  1  0  0  0  0  0  0  0  0
   -0.6494   -7.3592   -1.8934 O   0  5  0  1  0  0  0  0  0  0  0  0
   -4.4647    1.0618   -0.2041 N   0  0  0  1  0  0  0  0  0  0  0  0
   -1.8287   -5.4050   -2.0487 O   0  0  0  1  0  0  0  0  0  0  0  0
   -6.1391    0.1049   -2.5642 C   0  0  0  1  0  0  0  0  0  0  0  0
   -6.3853    0.0338   -4.0509 C   0  0  0  1  0  0  0  0  0  0  0  0
   -2.3159    0.7745    0.2861 C   0  0  0  1  0  0  0  0  0  0  0  0
   -6.0772    1.5270   -2.0311 C   0  0  0  1  0  0  0  0  0  0  0  0
   -2.9388   -0.4821    0.2783 C   0  0  0  1  0  0  0  0  0  0  0  0
    1.5578    1.8269    1.9281 C   0  0  0  1  0  0  0  0  0  0  0  0
   -5.4372    0.9216   -4.8676 C   0  0  0  1  0  0  0  0  0  0  0  0
   -5.7827    1.5998   -0.5425 C   0  0  0  1  0  0  0  0  0  0  0  0
   -2.3264   -1.8366    0.5462 C   0  0  0  1  0  0  0  0  0  0  0  0
   -4.0048    0.4387   -4.6597 C   0  0  0  1  0  0  0  0  0  0  0  0
    1.2720    2.2343    0.4775 C   0  0  0  1  0  0  0  0  0  0  0  0
    2.9656    1.9893    2.4349 C   0  0  0  1  0  0  0  0  0  0  0  0
   -0.9051    1.0282    0.5617 C   0  0  0  1  0  0  0  0  0  0  0  0
    3.1782    1.6393    3.8951 C   0  0  0  1  0  0  0  0  0  0  0  0
   -0.1765    2.0415    0.1583 C   0  0  0  1  0  0  0  0  0  0  0  0
   -3.2869    1.7196   -0.0151 C   0  0  0  1  0  0  0  0  0  0  0  0
    4.6417    1.7101    4.2543 C   0  0  0  1  0  0  0  0  0  0  0  0
   -4.2720   -0.2902   -0.0278 C   0  0  0  1  0  0  0  0  0  0  0  0
   -2.3039   -2.2351    1.9877 C   0  0  0  1  0  0  0  0  0  0  0  0
   -1.4396   -3.0698    2.5242 C   0  0  0  1  0  0  0  0  0  0  0  0
   -0.5501   -3.9926    1.7532 C   0  0  0  1  0  0  0  0  0  0  0  0
    4.9182    1.4084    5.7182 C   0  0  0  1  0  0  0  0  0  0  0  0
   -1.1468   -4.4209    0.4224 C   0  0  0  1  0  0  0  0  0  0  0  0
   -0.5404   -5.7026   -0.1252 C   0  0  0  1  0  0  0  0  0  0  0  0
   -1.0663   -6.1439   -1.4476 C   0  0  0  1  0  0  0  0  0  0  0  0
   -4.1530   -0.6795   -6.3140 H   0  0  0  1  0  0  0  0  0  0  0  0
   -6.6608    1.9431   -8.5784 H   0  0  0  1  0  0  0  0  0  0  0  0
   -5.7630    0.4965   -8.9706 H   0  0  0  1  0  0  0  0  0  0  0  0
   -5.0622    2.0688   -9.2723 H   0  0  0  1  0  0  0  0  0  0  0  0
   -2.2381   -1.8579   -4.8642 H   0  0  0  1  0  0  0  0  0  0  0  0
   -1.5389   -0.2803   -5.1379 H   0  0  0  1  0  0  0  0  0  0  0  0
   -1.9259   -1.3121   -6.4943 H   0  0  0  1  0  0  0  0  0  0  0  0
    1.8635    3.7219   -0.6490 H   0  0  0  1  0  0  0  0  0  0  0  0
   -6.5933    0.3653   -6.5435 H   0  0  0  1  0  0  0  0  0  0  0  0
   -5.2086   -0.3782   -2.3509 H   0  0  0  1  0  0  0  0  0  0  0  0
   -6.9322   -0.4107   -2.0640 H   0  0  0  1  0  0  0  0  0  0  0  0
   -7.3910    0.3443   -4.2435 H   0  0  0  1  0  0  0  0  0  0  0  0
   -6.2577   -0.9803   -4.3677 H   0  0  0  1  0  0  0  0  0  0  0  0
   -7.0197    1.9992   -2.2140 H   0  0  0  1  0  0  0  0  0  0  0  0
   -5.3066    2.0526   -2.5554 H   0  0  0  1  0  0  0  0  0  0  0  0
    1.3000    0.7932    2.0266 H   0  0  0  1  0  0  0  0  0  0  0  0
    0.9221    2.4151    2.5565 H   0  0  0  1  0  0  0  0  0  0  0  0
   -5.5165    1.9268   -4.5094 H   0  0  0  1  0  0  0  0  0  0  0  0
   -5.8245    2.6236   -0.2344 H   0  0  0  1  0  0  0  0  0  0  0  0
   -6.5272    1.0383   -0.0178 H   0  0  0  1  0  0  0  0  0  0  0  0
   -1.3183   -1.8239    0.1877 H   0  0  0  1  0  0  0  0  0  0  0  0
   -2.8884   -2.5697    0.0061 H   0  0  0  1  0  0  0  0  0  0  0  0
    1.8455    1.6006   -0.1662 H   0  0  0  1  0  0  0  0  0  0  0  0
    3.2498    3.0115    2.2963 H   0  0  0  1  0  0  0  0  0  0  0  0
    3.6015    1.3592    1.8489 H   0  0  0  1  0  0  0  0  0  0  0  0
   -0.4191    0.3203    1.1485 H   0  0  0  1  0  0  0  0  0  0  0  0
    2.8207    0.6467    4.0736 H   0  0  0  1  0  0  0  0  0  0  0  0
    2.6336    2.3300    4.5044 H   0  0  0  1  0  0  0  0  0  0  0  0
   -0.6406    2.7650   -0.4273 H   0  0  0  1  0  0  0  0  0  0  0  0
    4.9968    2.6960    4.0382 H   0  0  0  1  0  0  0  0  0  0  0  0
    5.1727    0.9999    3.6554 H   0  0  0  1  0  0  0  0  0  0  0  0
   -3.0251   -1.8216    2.6126 H   0  0  0  1  0  0  0  0  0  0  0  0
   -1.3698   -3.0893    3.5617 H   0  0  0  1  0  0  0  0  0  0  0  0
   -0.3724   -4.8669    2.3439 H   0  0  0  1  0  0  0  0  0  0  0  0
    0.3776   -3.4936    1.5656 H   0  0  0  1  0  0  0  0  0  0  0  0
    4.4354    2.1406    6.3311 H   0  0  0  1  0  0  0  0  0  0  0  0
    5.9732    1.4354    5.8946 H   0  0  0  1  0  0  0  0  0  0  0  0
    4.5405    0.4367    5.9594 H   0  0  0  1  0  0  0  0  0  0  0  0
   -0.9857   -3.6383   -0.2892 H   0  0  0  1  0  0  0  0  0  0  0  0
   -2.1977   -4.5725    0.5549 H   0  0  0  1  0  0  0  0  0  0  0  0
   -0.7266   -6.4841    0.5815 H   0  0  0  1  0  0  0  0  0  0  0  0
    0.5146   -5.5532   -0.2227 H   0  0  0  1  0  0  0  0  0  0  0  0
  1 34  1  0  0  0  0
  2  4  1  0  0  0  0
  3  4  1  0  0  0  0
  4  5  1  0  0  0  0
  4 32  1  0  0  0  0
  6 10  1  0  0  0  0
  6 26  1  0  0  0  0
  6 42  1  0  0  0  0
  7  8  1  0  0  0  0
  7  9  2  0  0  0  0
  7 13  1  0  0  0  0
  8 43  1  0  0  0  0
  8 44  1  0  0  0  0
  8 45  1  0  0  0  0
 10 46  1  0  0  0  0
 10 47  1  0  0  0  0
 10 48  1  0  0  0  0
 11 27  1  0  0  0  0
 11 49  1  0  0  0  0
 12 26  2  0  0  0  0
 13 23  1  0  0  0  0
 13 50  1  0  0  0  0
 14 41  1  0  0  0  0
 15 24  1  0  0  0  0
 15 32  4  0  0  0  0
 15 34  4  0  0  0  0
 16 41  2  0  0  0  0
 17 18  1  0  0  0  0
 17 20  1  0  0  0  0
 17 51  1  0  0  0  0
 17 52  1  0  0  0  0
 18 23  1  0  0  0  0
 18 53  1  0  0  0  0
 18 54  1  0  0  0  0
 19 21  4  0  0  0  0
 19 29  1  0  0  0  0
 19 32  4  0  0  0  0
 20 24  1  0  0  0  0
 20 55  1  0  0  0  0
 20 56  1  0  0  0  0
 21 25  1  0  0  0  0
 21 34  4  0  0  0  0
 22 27  1  0  0  0  0
 22 28  1  0  0  0  0
 22 57  1  0  0  0  0
 22 58  1  0  0  0  0
 23 26  1  0  0  0  0
 23 59  1  0  0  0  0
 24 60  1  0  0  0  0
 24 61  1  0  0  0  0
 25 35  1  0  0  0  0
 25 62  1  0  0  0  0
 25 63  1  0  0  0  0
 27 31  1  0  0  0  0
 27 64  1  0  0  0  0
 28 30  1  0  0  0  0
 28 65  1  0  0  0  0
 28 66  1  0  0  0  0
 29 31  2  0  0  0  0
 29 67  1  0  0  0  0
 30 33  1  0  0  0  0
 30 68  1  0  0  0  0
 30 69  1  0  0  0  0
 31 70  1  0  0  0  0
 33 38  1  0  0  0  0
 33 71  1  0  0  0  0
 33 72  1  0  0  0  0
 35 36  2  0  0  0  0
 35 73  1  0  0  0  0
 36 37  1  0  0  0  0
 36 74  1  0  0  0  0
 37 39  1  0  0  0  0
 37 75  1  0  0  0  0
 37 76  1  0  0  0  0
 38 77  1  0  0  0  0
 38 78  1  0  0  0  0
 38 79  1  0  0  0  0
 39 40  1  0  0  0  0
 39 80  1  0  0  0  0
 39 81  1  0  0  0  0
 40 41  1  0  0  0  0
 40 82  1  0  0  0  0
 40 83  1  0  0  0  0
M  END
> <ConfClashScore>
0 

> <ConfOneFourInteractionScore>
-0.983114 

> <ConfScore>
0.00799183 

> <ConfScorePBest>
0.00504272 

> <ConfTolerance>
1.85182 

$$$$
9548876
  PyMOL2.2          3D                             0

 83 83  0  0  0  0  0  0  0  0999 V2000
   -5.0157   -1.0362   -0.0522 H   0  0  0  1  0  0  0  0  0  0  0  0
   -3.9449    3.6591    0.4446 H   0  0  0  1  0  0  0  0  0  0  0  0
   -3.2803    3.4730   -1.1604 H   0  0  0  1  0  0  0  0  0  0  0  0
   -3.1765    3.1901   -0.1337 C   0  0  0  1  0  0  0  0  0  0  0  0
   -2.2185    3.5013    0.2274 H   0  0  0  1  0  0  0  0  0  0  0  0
  -10.3042    1.8673   -2.8715 N   0  0  0  1  0  0  0  0  0  0  0  0
   -8.4446    4.7574   -4.9971 C   0  0  0  1  0  0  0  0  0  0  0  0
   -8.8546    6.1374   -4.5727 C   0  0  0  1  0  0  0  0  0  0  0  0
   -7.6339    4.5286   -5.8747 O   0  0  0  1  0  0  0  0  0  0  0  0
  -11.3458    1.1533   -2.1481 C   0  0  0  1  0  0  0  0  0  0  0  0
    1.9011    1.4241    0.7147 O   0  0  0  1  0  0  0  0  0  0  0  0
  -10.0133    0.3632   -4.5267 O   0  0  0  1  0  0  0  0  0  0  0  0
   -9.0296    3.7481   -4.3458 N   0  0  0  1  0  0  0  0  0  0  0  0
   -1.8106   -5.3584   -4.1825 O   0  5  0  1  0  0  0  0  0  0  0  0
   -4.4810    1.0554   -0.1620 N   0  0  0  1  0  0  0  0  0  0  0  0
   -0.6706   -6.9133   -2.9754 O   0  0  0  1  0  0  0  0  0  0  0  0
   -7.1437    2.0608   -2.6451 C   0  0  0  1  0  0  0  0  0  0  0  0
   -7.2652    2.0115   -4.1604 C   0  0  0  1  0  0  0  0  0  0  0  0
   -2.3177    0.7618    0.2551 C   0  0  0  1  0  0  0  0  0  0  0  0
   -5.7473    1.7367   -2.1420 C   0  0  0  1  0  0  0  0  0  0  0  0
   -2.9438   -0.4931    0.2671 C   0  0  0  1  0  0  0  0  0  0  0  0
    1.7366    0.5566    2.8935 C   0  0  0  1  0  0  0  0  0  0  0  0
   -8.6901    2.3576   -4.6022 C   0  0  0  1  0  0  0  0  0  0  0  0
   -5.7220    1.6779   -0.6242 C   0  0  0  1  0  0  0  0  0  0  0  0
   -2.2713   -1.8217    0.5200 C   0  0  0  1  0  0  0  0  0  0  0  0
   -9.7171    1.4143   -3.9829 C   0  0  0  1  0  0  0  0  0  0  0  0
    1.3348    0.3333    1.4385 C   0  0  0  1  0  0  0  0  0  0  0  0
    3.2331    0.6269    3.1562 C   0  0  0  1  0  0  0  0  0  0  0  0
   -0.9203    1.0272    0.5750 C   0  0  0  1  0  0  0  0  0  0  0  0
    3.4470    1.0160    4.6090 C   0  0  0  1  0  0  0  0  0  0  0  0
   -0.1560    0.2787    1.3304 C   0  0  0  1  0  0  0  0  0  0  0  0
   -3.2958    1.7099   -0.0122 C   0  0  0  1  0  0  0  0  0  0  0  0
    4.8882    0.8683    5.0661 C   0  0  0  1  0  0  0  0  0  0  0  0
   -4.2861   -0.2974    0.0063 C   0  0  0  1  0  0  0  0  0  0  0  0
   -3.1601   -2.9966    0.7786 C   0  0  0  1  0  0  0  0  0  0  0  0
   -2.7482   -4.2559    0.8639 C   0  0  0  1  0  0  0  0  0  0  0  0
   -1.3063   -4.6229    0.6356 C   0  0  0  1  0  0  0  0  0  0  0  0
    5.0895    1.1902    6.5371 C   0  0  0  1  0  0  0  0  0  0  0  0
   -1.1097   -5.5620   -0.5473 C   0  0  0  1  0  0  0  0  0  0  0  0
   -1.5135   -4.9479   -1.8778 C   0  0  0  1  0  0  0  0  0  0  0  0
   -1.2733   -5.8543   -3.0358 C   0  0  0  1  0  0  0  0  0  0  0  0
  -10.0150    2.7356   -2.5211 H   0  0  0  1  0  0  0  0  0  0  0  0
   -9.8410    6.3435   -4.9324 H   0  0  0  1  0  0  0  0  0  0  0  0
   -8.1705    6.8531   -4.9785 H   0  0  0  1  0  0  0  0  0  0  0  0
   -8.8445    6.1995   -3.5045 H   0  0  0  1  0  0  0  0  0  0  0  0
  -11.2831    0.1086   -2.3706 H   0  0  0  1  0  0  0  0  0  0  0  0
  -12.3044    1.5242   -2.4454 H   0  0  0  1  0  0  0  0  0  0  0  0
  -11.2155    1.3023   -1.0966 H   0  0  0  1  0  0  0  0  0  0  0  0
    1.9338    2.2004    1.2786 H   0  0  0  1  0  0  0  0  0  0  0  0
   -9.7113    3.9520   -3.6719 H   0  0  0  1  0  0  0  0  0  0  0  0
   -7.8279    1.3526   -2.2266 H   0  0  0  1  0  0  0  0  0  0  0  0
   -7.4029    3.0454   -2.3158 H   0  0  0  1  0  0  0  0  0  0  0  0
   -7.0222    1.0264   -4.5000 H   0  0  0  1  0  0  0  0  0  0  0  0
   -6.5839    2.7157   -4.5901 H   0  0  0  1  0  0  0  0  0  0  0  0
   -5.0697    2.4947   -2.4752 H   0  0  0  1  0  0  0  0  0  0  0  0
   -5.4441    0.7888   -2.5350 H   0  0  0  1  0  0  0  0  0  0  0  0
    1.3378   -0.2496    3.4730 H   0  0  0  1  0  0  0  0  0  0  0  0
    1.3014    1.4788    3.2177 H   0  0  0  1  0  0  0  0  0  0  0  0
   -8.7294    2.2046   -5.6605 H   0  0  0  1  0  0  0  0  0  0  0  0
   -5.7864    2.6711   -0.2313 H   0  0  0  1  0  0  0  0  0  0  0  0
   -6.5555    1.1025   -0.2792 H   0  0  0  1  0  0  0  0  0  0  0  0
   -1.6360   -1.7042    1.3729 H   0  0  0  1  0  0  0  0  0  0  0  0
   -1.6765   -2.0506   -0.3395 H   0  0  0  1  0  0  0  0  0  0  0  0
    1.7477   -0.5942    1.1005 H   0  0  0  1  0  0  0  0  0  0  0  0
    3.6781    1.3602    2.5165 H   0  0  0  1  0  0  0  0  0  0  0  0
    3.6780   -0.3280    2.9686 H   0  0  0  1  0  0  0  0  0  0  0  0
   -0.4939    1.8842    0.1686 H   0  0  0  1  0  0  0  0  0  0  0  0
    2.8310    0.3914    5.2217 H   0  0  0  1  0  0  0  0  0  0  0  0
    3.1547    2.0378    4.7331 H   0  0  0  1  0  0  0  0  0  0  0  0
   -0.6379   -0.4305    1.9189 H   0  0  0  1  0  0  0  0  0  0  0  0
    5.4973    1.5309    4.4874 H   0  0  0  1  0  0  0  0  0  0  0  0
    5.1967   -0.1418    4.8946 H   0  0  0  1  0  0  0  0  0  0  0  0
   -4.1765   -2.8134    0.9008 H   0  0  0  1  0  0  0  0  0  0  0  0
   -3.4347   -5.0029    1.0928 H   0  0  0  1  0  0  0  0  0  0  0  0
   -0.9331   -5.1020    1.5165 H   0  0  0  1  0  0  0  0  0  0  0  0
   -0.7512   -3.7262    0.4544 H   0  0  0  1  0  0  0  0  0  0  0  0
    5.5673    0.3643    7.0213 H   0  0  0  1  0  0  0  0  0  0  0  0
    4.1398    1.3714    6.9955 H   0  0  0  1  0  0  0  0  0  0  0  0
    5.7032    2.0618    6.6304 H   0  0  0  1  0  0  0  0  0  0  0  0
   -1.7003   -6.4395   -0.3855 H   0  0  0  1  0  0  0  0  0  0  0  0
   -0.0756   -5.8318   -0.5981 H   0  0  0  1  0  0  0  0  0  0  0  0
   -0.9486   -4.0511   -2.0244 H   0  0  0  1  0  0  0  0  0  0  0  0
   -2.5563   -4.7112   -1.8412 H   0  0  0  1  0  0  0  0  0  0  0  0
  1 34  1  0  0  0  0
  2  4  1  0  0  0  0
  3  4  1  0  0  0  0
  4  5  1  0  0  0  0
  4 32  1  0  0  0  0
  6 10  1  0  0  0  0
  6 26  1  0  0  0  0
  6 42  1  0  0  0  0
  7  8  1  0  0  0  0
  7  9  2  0  0  0  0
  7 13  1  0  0  0  0
  8 43  1  0  0  0  0
  8 44  1  0  0  0  0
  8 45  1  0  0  0  0
 10 46  1  0  0  0  0
 10 47  1  0  0  0  0
 10 48  1  0  0  0  0
 11 27  1  0  0  0  0
 11 49  1  0  0  0  0
 12 26  2  0  0  0  0
 13 23  1  0  0  0  0
 13 50  1  0  0  0  0
 14 41  1  0  0  0  0
 15 24  1  0  0  0  0
 15 32  4  0  0  0  0
 15 34  4  0  0  0  0
 16 41  2  0  0  0  0
 17 18  1  0  0  0  0
 17 20  1  0  0  0  0
 17 51  1  0  0  0  0
 17 52  1  0  0  0  0
 18 23  1  0  0  0  0
 18 53  1  0  0  0  0
 18 54  1  0  0  0  0
 19 21  4  0  0  0  0
 19 29  1  0  0  0  0
 19 32  4  0  0  0  0
 20 24  1  0  0  0  0
 20 55  1  0  0  0  0
 20 56  1  0  0  0  0
 21 25  1  0  0  0  0
 21 34  4  0  0  0  0
 22 27  1  0  0  0  0
 22 28  1  0  0  0  0
 22 57  1  0  0  0  0
 22 58  1  0  0  0  0
 23 26  1  0  0  0  0
 23 59  1  0  0  0  0
 24 60  1  0  0  0  0
 24 61  1  0  0  0  0
 25 35  1  0  0  0  0
 25 62  1  0  0  0  0
 25 63  1  0  0  0  0
 27 31  1  0  0  0  0
 27 64  1  0  0  0  0
 28 30  1  0  0  0  0
 28 65  1  0  0  0  0
 28 66  1  0  0  0  0
 29 31  2  0  0  0  0
 29 67  1  0  0  0  0
 30 33  1  0  0  0  0
 30 68  1  0  0  0  0
 30 69  1  0  0  0  0
 31 70  1  0  0  0  0
 33 38  1  0  0  0  0
 33 71  1  0  0  0  0
 33 72  1  0  0  0  0
 35 36  2  0  0  0  0
 35 73  1  0  0  0  0
 36 37  1  0  0  0  0
 36 74  1  0  0  0  0
 37 39  1  0  0  0  0
 37 75  1  0  0  0  0
 37 76  1  0  0  0  0
 38 77  1  0  0  0  0
 38 78  1  0  0  0  0
 38 79  1  0  0  0  0
 39 40  1  0  0  0  0
 39 80  1  0  0  0  0
 39 81  1  0  0  0  0
 40 41  1  0  0  0  0
 40 82  1  0  0  0  0
 40 83  1  0  0  0  0
M  END
> <ConfClashScore>
0 

> <ConfOneFourInteractionScore>
-0.988241 

> <ConfScore>
0.00924139 

> <ConfScorePBest>
0.00501424 

> <ConfTolerance>
1.70048 

$$$$
9548876
  PyMOL2.2          3D                             0

 83 83  0  0  0  0  0  0  0  0999 V2000
   -4.9976   -1.0421   -0.1564 H   0  0  0  1  0  0  0  0  0  0  0  0
   -2.1625    3.4470   -0.3979 H   0  0  0  1  0  0  0  0  0  0  0  0
   -3.4312    3.6447    0.7869 H   0  0  0  1  0  0  0  0  0  0  0  0
   -3.1702    3.1901   -0.1459 C   0  0  0  1  0  0  0  0  0  0  0  0
   -3.8298    3.5417   -0.9115 H   0  0  0  1  0  0  0  0  0  0  0  0
   -9.2555    2.6389   -6.4078 N   0  0  0  1  0  0  0  0  0  0  0  0
   -6.9812    4.8177   -4.5065 C   0  0  0  1  0  0  0  0  0  0  0  0
   -7.3645    6.2628   -4.2536 C   0  0  0  1  0  0  0  0  0  0  0  0
   -5.8278    4.5144   -4.8088 O   0  0  0  1  0  0  0  0  0  0  0  0
   -9.7540    2.3866   -7.7516 C   0  0  0  1  0  0  0  0  0  0  0  0
    1.6292    3.2976    1.1504 O   0  0  0  1  0  0  0  0  0  0  0  0
   -7.6984    1.0286   -6.4713 O   0  0  0  1  0  0  0  0  0  0  0  0
   -7.9367    3.8819   -4.3907 N   0  0  0  1  0  0  0  0  0  0  0  0
   -3.7704   -9.0541    2.1452 O   0  5  0  1  0  0  0  0  0  0  0  0
   -4.4644    1.0510   -0.2414 N   0  0  0  1  0  0  0  0  0  0  0  0
   -1.9984   -8.1818    3.2737 O   0  0  0  1  0  0  0  0  0  0  0  0
   -7.7170    1.9316   -2.0474 C   0  0  0  1  0  0  0  0  0  0  0  0
   -8.2887    1.6616   -3.4172 C   0  0  0  1  0  0  0  0  0  0  0  0
   -2.3265    0.7655    0.2958 C   0  0  0  1  0  0  0  0  0  0  0  0
   -6.2398    1.6145   -1.8808 C   0  0  0  1  0  0  0  0  0  0  0  0
   -2.9484   -0.4914    0.2760 C   0  0  0  1  0  0  0  0  0  0  0  0
    0.8451    2.3991    3.2442 C   0  0  0  1  0  0  0  0  0  0  0  0
   -7.6608    2.4636   -4.5647 C   0  0  0  1  0  0  0  0  0  0  0  0
   -5.7665    1.6888   -0.4383 C   0  0  0  1  0  0  0  0  0  0  0  0
   -2.2867   -1.8172    0.5690 C   0  0  0  1  0  0  0  0  0  0  0  0
   -8.2282    1.9604   -5.8887 C   0  0  0  1  0  0  0  0  0  0  0  0
    0.9257    2.2184    1.7235 C   0  0  0  1  0  0  0  0  0  0  0  0
    2.1882    2.3262    3.9273 C   0  0  0  1  0  0  0  0  0  0  0  0
   -0.9239    1.0201    0.6013 C   0  0  0  1  0  0  0  0  0  0  0  0
    2.1718    2.5580    5.4294 C   0  0  0  1  0  0  0  0  0  0  0  0
   -0.4448    2.1220    1.1378 C   0  0  0  1  0  0  0  0  0  0  0  0
   -3.2914    1.7098   -0.0277 C   0  0  0  1  0  0  0  0  0  0  0  0
    3.5567    2.5470    6.0559 C   0  0  0  1  0  0  0  0  0  0  0  0
   -4.2748   -0.3007   -0.0593 C   0  0  0  1  0  0  0  0  0  0  0  0
   -1.8928   -2.0130    1.9963 C   0  0  0  1  0  0  0  0  0  0  0  0
   -2.1826   -3.1160    2.6907 C   0  0  0  1  0  0  0  0  0  0  0  0
   -2.9416   -4.2196    2.0036 C   0  0  0  1  0  0  0  0  0  0  0  0
    3.5395    2.7691    7.5595 C   0  0  0  1  0  0  0  0  0  0  0  0
   -2.5432   -5.5951    2.4782 C   0  0  0  1  0  0  0  0  0  0  0  0
   -3.3453   -6.7466    1.8940 C   0  0  0  1  0  0  0  0  0  0  0  0
   -2.9460   -8.0390    2.5187 C   0  0  0  1  0  0  0  0  0  0  0  0
   -9.6883    3.3304   -5.8648 H   0  0  0  1  0  0  0  0  0  0  0  0
   -6.4944    6.8813   -4.3275 H   0  0  0  1  0  0  0  0  0  0  0  0
   -7.7842    6.3539   -3.2736 H   0  0  0  1  0  0  0  0  0  0  0  0
   -8.0852    6.5730   -4.9811 H   0  0  0  1  0  0  0  0  0  0  0  0
   -9.7352    3.2955   -8.3160 H   0  0  0  1  0  0  0  0  0  0  0  0
  -10.7585    2.0220   -7.6965 H   0  0  0  1  0  0  0  0  0  0  0  0
   -9.1350    1.6569   -8.2303 H   0  0  0  1  0  0  0  0  0  0  0  0
    2.5664    3.0914    1.1239 H   0  0  0  1  0  0  0  0  0  0  0  0
   -8.8518    4.1635   -4.1818 H   0  0  0  1  0  0  0  0  0  0  0  0
   -8.2624    1.3418   -1.3406 H   0  0  0  1  0  0  0  0  0  0  0  0
   -7.8577    2.9699   -1.8304 H   0  0  0  1  0  0  0  0  0  0  0  0
   -9.3337    1.8898   -3.3889 H   0  0  0  1  0  0  0  0  0  0  0  0
   -8.1558    0.6216   -3.6306 H   0  0  0  1  0  0  0  0  0  0  0  0
   -5.6750    2.3152   -2.4597 H   0  0  0  1  0  0  0  0  0  0  0  0
   -6.0621    0.6244   -2.2457 H   0  0  0  1  0  0  0  0  0  0  0  0
    0.2187    1.6295    3.6446 H   0  0  0  1  0  0  0  0  0  0  0  0
    0.4115    3.3555    3.4497 H   0  0  0  1  0  0  0  0  0  0  0  0
   -6.6036    2.2986   -4.5588 H   0  0  0  1  0  0  0  0  0  0  0  0
   -5.6906    2.7178   -0.1549 H   0  0  0  1  0  0  0  0  0  0  0  0
   -6.4858    1.1989    0.1842 H   0  0  0  1  0  0  0  0  0  0  0  0
   -1.4055   -1.8908   -0.0335 H   0  0  0  1  0  0  0  0  0  0  0  0
   -2.9687   -2.5970    0.3010 H   0  0  0  1  0  0  0  0  0  0  0  0
    1.4416    1.3025    1.5236 H   0  0  0  1  0  0  0  0  0  0  0  0
    2.8227    3.0665    3.4865 H   0  0  0  1  0  0  0  0  0  0  0  0
    2.5965    1.3535    3.7484 H   0  0  0  1  0  0  0  0  0  0  0  0
   -0.2438    0.2663    0.3760 H   0  0  0  1  0  0  0  0  0  0  0  0
    1.5871    1.7866    5.8853 H   0  0  0  1  0  0  0  0  0  0  0  0
    1.7203    3.5090    5.6210 H   0  0  0  1  0  0  0  0  0  0  0  0
   -1.0503    2.9674    1.1547 H   0  0  0  1  0  0  0  0  0  0  0  0
    4.1392    3.3230    5.6050 H   0  0  0  1  0  0  0  0  0  0  0  0
    4.0109    1.5986    5.8583 H   0  0  0  1  0  0  0  0  0  0  0  0
   -1.3669   -1.2527    2.4728 H   0  0  0  1  0  0  0  0  0  0  0  0
   -1.8903   -3.2107    3.6843 H   0  0  0  1  0  0  0  0  0  0  0  0
   -2.7575   -4.1558    0.9515 H   0  0  0  1  0  0  0  0  0  0  0  0
   -3.9859   -4.0834    2.1925 H   0  0  0  1  0  0  0  0  0  0  0  0
    4.5406    2.9058    7.9118 H   0  0  0  1  0  0  0  0  0  0  0  0
    3.1055    1.9177    8.0407 H   0  0  0  1  0  0  0  0  0  0  0  0
    2.9605    3.6403    7.7845 H   0  0  0  1  0  0  0  0  0  0  0  0
   -2.6549   -5.6219    3.5420 H   0  0  0  1  0  0  0  0  0  0  0  0
   -1.5152   -5.7468    2.2231 H   0  0  0  1  0  0  0  0  0  0  0  0
   -3.1694   -6.7973    0.8398 H   0  0  0  1  0  0  0  0  0  0  0  0
   -4.3861   -6.5763    2.0748 H   0  0  0  1  0  0  0  0  0  0  0  0
  1 34  1  0  0  0  0
  2  4  1  0  0  0  0
  3  4  1  0  0  0  0
  4  5  1  0  0  0  0
  4 32  1  0  0  0  0
  6 10  1  0  0  0  0
  6 26  1  0  0  0  0
  6 42  1  0  0  0  0
  7  8  1  0  0  0  0
  7  9  2  0  0  0  0
  7 13  1  0  0  0  0
  8 43  1  0  0  0  0
  8 44  1  0  0  0  0
  8 45  1  0  0  0  0
 10 46  1  0  0  0  0
 10 47  1  0  0  0  0
 10 48  1  0  0  0  0
 11 27  1  0  0  0  0
 11 49  1  0  0  0  0
 12 26  2  0  0  0  0
 13 23  1  0  0  0  0
 13 50  1  0  0  0  0
 14 41  1  0  0  0  0
 15 24  1  0  0  0  0
 15 32  4  0  0  0  0
 15 34  4  0  0  0  0
 16 41  2  0  0  0  0
 17 18  1  0  0  0  0
 17 20  1  0  0  0  0
 17 51  1  0  0  0  0
 17 52  1  0  0  0  0
 18 23  1  0  0  0  0
 18 53  1  0  0  0  0
 18 54  1  0  0  0  0
 19 21  4  0  0  0  0
 19 29  1  0  0  0  0
 19 32  4  0  0  0  0
 20 24  1  0  0  0  0
 20 55  1  0  0  0  0
 20 56  1  0  0  0  0
 21 25  1  0  0  0  0
 21 34  4  0  0  0  0
 22 27  1  0  0  0  0
 22 28  1  0  0  0  0
 22 57  1  0  0  0  0
 22 58  1  0  0  0  0
 23 26  1  0  0  0  0
 23 59  1  0  0  0  0
 24 60  1  0  0  0  0
 24 61  1  0  0  0  0
 25 35  1  0  0  0  0
 25 62  1  0  0  0  0
 25 63  1  0  0  0  0
 27 31  1  0  0  0  0
 27 64  1  0  0  0  0
 28 30  1  0  0  0  0
 28 65  1  0  0  0  0
 28 66  1  0  0  0  0
 29 31  2  0  0  0  0
 29 67  1  0  0  0  0
 30 33  1  0  0  0  0
 30 68  1  0  0  0  0
 30 69  1  0  0  0  0
 31 70  1  0  0  0  0
 33 38  1  0  0  0  0
 33 71  1  0  0  0  0
 33 72  1  0  0  0  0
 35 36  2  0  0  0  0
 35 73  1  0  0  0  0
 36 37  1  0  0  0  0
 36 74  1  0  0  0  0
 37 39  1  0  0  0  0
 37 75  1  0  0  0  0
 37 76  1  0  0  0  0
 38 77  1  0  0  0  0
 38 78  1  0  0  0  0
 38 79  1  0  0  0  0
 39 40  1  0  0  0  0
 39 80  1  0  0  0  0
 39 81  1  0  0  0  0
 40 41  1  0  0  0  0
 40 82  1  0  0  0  0
 40 83  1  0  0  0  0
M  END
> <ConfClashScore>
0 

> <ConfOneFourInteractionScore>
-0.98718 

> <ConfScore>
0.00985164 

> <ConfScorePBest>
0.00498576 

> <ConfTolerance>
1.77534 

$$$$
9548876
  PyMOL2.2          3D                             0

 83 83  0  0  0  0  0  0  0  0999 V2000
   -5.0039   -1.0085   -0.0695 H   0  0  0  1  0  0  0  0  0  0  0  0
   -3.9635    3.6315    0.4678 H   0  0  0  1  0  0  0  0  0  0  0  0
   -3.3766    3.4619   -1.1691 H   0  0  0  1  0  0  0  0  0  0  0  0
   -3.2047    3.1948   -0.1473 C   0  0  0  1  0  0  0  0  0  0  0  0
   -2.2454    3.5560    0.1597 H   0  0  0  1  0  0  0  0  0  0  0  0
   -9.8021    3.7078   -6.4298 N   0  0  0  1  0  0  0  0  0  0  0  0
   -9.1661    0.8905   -5.0726 C   0  0  0  1  0  0  0  0  0  0  0  0
  -10.0510   -0.3014   -4.7637 C   0  0  0  1  0  0  0  0  0  0  0  0
   -8.3096    0.8463   -5.9548 O   0  0  0  1  0  0  0  0  0  0  0  0
   -9.9946    4.2594   -7.7627 C   0  0  0  1  0  0  0  0  0  0  0  0
    2.1979   -0.7651    1.5307 O   0  0  0  1  0  0  0  0  0  0  0  0
   -7.6563    4.3710   -6.2249 O   0  0  0  1  0  0  0  0  0  0  0  0
   -9.4144    1.9611   -4.3018 N   0  0  0  1  0  0  0  0  0  0  0  0
   -3.8405   -7.1321    2.1154 O   0  5  0  1  0  0  0  0  0  0  0  0
   -4.4373    1.0750   -0.1717 N   0  0  0  1  0  0  0  0  0  0  0  0
   -3.4299   -7.7410   -0.0271 O   0  0  0  1  0  0  0  0  0  0  0  0
   -7.1141    2.5052   -2.4607 C   0  0  0  1  0  0  0  0  0  0  0  0
   -7.1953    2.9118   -3.9112 C   0  0  0  1  0  0  0  0  0  0  0  0
   -2.2831    0.7492    0.2683 C   0  0  0  1  0  0  0  0  0  0  0  0
   -5.7202    2.0763   -2.0323 C   0  0  0  1  0  0  0  0  0  0  0  0
   -2.9278   -0.4964    0.2725 C   0  0  0  1  0  0  0  0  0  0  0  0
    2.0667    1.4831    0.7843 C   0  0  0  1  0  0  0  0  0  0  0  0
   -8.6241    3.1802   -4.3866 C   0  0  0  1  0  0  0  0  0  0  0  0
   -5.7063    1.6807   -0.5765 C   0  0  0  1  0  0  0  0  0  0  0  0
   -2.3331   -1.8619    0.5235 C   0  0  0  1  0  0  0  0  0  0  0  0
   -8.6350    3.7907   -5.7848 C   0  0  0  1  0  0  0  0  0  0  0  0
    1.3580    0.3837    1.5605 C   0  0  0  1  0  0  0  0  0  0  0  0
    2.1598    1.1272   -0.6905 C   0  0  0  1  0  0  0  0  0  0  0  0
   -0.8838    0.9939    0.6040 C   0  0  0  1  0  0  0  0  0  0  0  0
    2.7425    2.2421   -1.5437 C   0  0  0  1  0  0  0  0  0  0  0  0
    0.0300    0.1134    0.9274 C   0  0  0  1  0  0  0  0  0  0  0  0
   -3.2442    1.7118   -0.0086 C   0  0  0  1  0  0  0  0  0  0  0  0
    2.7300    1.9316   -3.0308 C   0  0  0  1  0  0  0  0  0  0  0  0
   -4.2642   -0.2806   -0.0025 C   0  0  0  1  0  0  0  0  0  0  0  0
   -1.7762   -2.4743   -0.7223 C   0  0  0  1  0  0  0  0  0  0  0  0
   -2.3559   -3.3594   -1.4938 C   0  0  0  1  0  0  0  0  0  0  0  0
   -3.8118   -3.7419   -1.5006 C   0  0  0  1  0  0  0  0  0  0  0  0
    3.2747    3.1039   -3.8305 C   0  0  0  1  0  0  0  0  0  0  0  0
   -4.0513   -5.1859   -1.0795 C   0  0  0  1  0  0  0  0  0  0  0  0
   -3.7816   -5.4365    0.3984 C   0  0  0  1  0  0  0  0  0  0  0  0
   -3.6661   -6.8688    0.7926 C   0  0  0  1  0  0  0  0  0  0  0  0
  -10.5548    3.2600   -5.9901 H   0  0  0  1  0  0  0  0  0  0  0  0
   -9.4902   -1.2042   -4.8870 H   0  0  0  1  0  0  0  0  0  0  0  0
  -10.8871   -0.3071   -5.4314 H   0  0  0  1  0  0  0  0  0  0  0  0
  -10.4004   -0.2338   -3.7546 H   0  0  0  1  0  0  0  0  0  0  0  0
  -10.3772    5.2556   -7.6852 H   0  0  0  1  0  0  0  0  0  0  0  0
  -10.6900    3.6516   -8.3030 H   0  0  0  1  0  0  0  0  0  0  0  0
   -9.0581    4.2764   -8.2800 H   0  0  0  1  0  0  0  0  0  0  0  0
    1.8036   -1.4358    0.9683 H   0  0  0  1  0  0  0  0  0  0  0  0
  -10.1536    1.9204   -3.6597 H   0  0  0  1  0  0  0  0  0  0  0  0
   -7.7852    1.6875   -2.2995 H   0  0  0  1  0  0  0  0  0  0  0  0
   -7.4134    3.3370   -1.8579 H   0  0  0  1  0  0  0  0  0  0  0  0
   -6.7814    2.1258   -4.5076 H   0  0  0  1  0  0  0  0  0  0  0  0
   -6.6197    3.8036   -4.0462 H   0  0  0  1  0  0  0  0  0  0  0  0
   -5.0415    2.8899   -2.1813 H   0  0  0  1  0  0  0  0  0  0  0  0
   -5.4123    1.2409   -2.6258 H   0  0  0  1  0  0  0  0  0  0  0  0
    3.0537    1.6099    1.1776 H   0  0  0  1  0  0  0  0  0  0  0  0
    1.5196    2.3964    0.8910 H   0  0  0  1  0  0  0  0  0  0  0  0
   -9.0503    3.9014   -3.7208 H   0  0  0  1  0  0  0  0  0  0  0  0
   -5.8741    2.5545    0.0178 H   0  0  0  1  0  0  0  0  0  0  0  0
   -6.4928    0.9758   -0.4052 H   0  0  0  1  0  0  0  0  0  0  0  0
   -3.0964   -2.5039    0.9112 H   0  0  0  1  0  0  0  0  0  0  0  0
   -1.5463   -1.7679    1.2425 H   0  0  0  1  0  0  0  0  0  0  0  0
    1.2054    0.7093    2.5682 H   0  0  0  1  0  0  0  0  0  0  0  0
    1.1763    0.9047   -1.0485 H   0  0  0  1  0  0  0  0  0  0  0  0
    2.7812    0.2621   -0.7922 H   0  0  0  1  0  0  0  0  0  0  0  0
   -0.5754    1.9869    0.5838 H   0  0  0  1  0  0  0  0  0  0  0  0
    3.7551    2.4076   -1.2402 H   0  0  0  1  0  0  0  0  0  0  0  0
    2.1701    3.1307   -1.3778 H   0  0  0  1  0  0  0  0  0  0  0  0
   -0.1916   -0.8817    0.7217 H   0  0  0  1  0  0  0  0  0  0  0  0
    1.7248    1.7333   -3.3393 H   0  0  0  1  0  0  0  0  0  0  0  0
    3.3366    1.0696   -3.2144 H   0  0  0  1  0  0  0  0  0  0  0  0
   -0.8253   -2.1633   -1.0067 H   0  0  0  1  0  0  0  0  0  0  0  0
   -1.7441   -3.8515   -2.1758 H   0  0  0  1  0  0  0  0  0  0  0  0
   -4.1945   -3.6079   -2.4908 H   0  0  0  1  0  0  0  0  0  0  0  0
   -4.3360   -3.0987   -0.8250 H   0  0  0  1  0  0  0  0  0  0  0  0
    2.6735    3.2509   -4.7033 H   0  0  0  1  0  0  0  0  0  0  0  0
    4.2831    2.8979   -4.1229 H   0  0  0  1  0  0  0  0  0  0  0  0
    3.2509    3.9879   -3.2282 H   0  0  0  1  0  0  0  0  0  0  0  0
   -3.4069   -5.8181   -1.6540 H   0  0  0  1  0  0  0  0  0  0  0  0
   -5.0715   -5.4345   -1.2852 H   0  0  0  1  0  0  0  0  0  0  0  0
   -4.5842   -5.0038    0.9583 H   0  0  0  1  0  0  0  0  0  0  0  0
   -2.8642   -4.9488    0.6539 H   0  0  0  1  0  0  0  0  0  0  0  0
  1 34  1  0  0  0  0
  2  4  1  0  0  0  0
  3  4  1  0  0  0  0
  4  5  1  0  0  0  0
  4 32  1  0  0  0  0
  6 10  1  0  0  0  0
  6 26  1  0  0  0  0
  6 42  1  0  0  0  0
  7  8  1  0  0  0  0
  7  9  2  0  0  0  0
  7 13  1  0  0  0  0
  8 43  1  0  0  0  0
  8 44  1  0  0  0  0
  8 45  1  0  0  0  0
 10 46  1  0  0  0  0
 10 47  1  0  0  0  0
 10 48  1  0  0  0  0
 11 27  1  0  0  0  0
 11 49  1  0  0  0  0
 12 26  2  0  0  0  0
 13 23  1  0  0  0  0
 13 50  1  0  0  0  0
 14 41  1  0  0  0  0
 15 24  1  0  0  0  0
 15 32  4  0  0  0  0
 15 34  4  0  0  0  0
 16 41  2  0  0  0  0
 17 18  1  0  0  0  0
 17 20  1  0  0  0  0
 17 51  1  0  0  0  0
 17 52  1  0  0  0  0
 18 23  1  0  0  0  0
 18 53  1  0  0  0  0
 18 54  1  0  0  0  0
 19 21  4  0  0  0  0
 19 29  1  0  0  0  0
 19 32  4  0  0  0  0
 20 24  1  0  0  0  0
 20 55  1  0  0  0  0
 20 56  1  0  0  0  0
 21 25  1  0  0  0  0
 21 34  4  0  0  0  0
 22 27  1  0  0  0  0
 22 28  1  0  0  0  0
 22 57  1  0  0  0  0
 22 58  1  0  0  0  0
 23 26  1  0  0  0  0
 23 59  1  0  0  0  0
 24 60  1  0  0  0  0
 24 61  1  0  0  0  0
 25 35  1  0  0  0  0
 25 62  1  0  0  0  0
 25 63  1  0  0  0  0
 27 31  1  0  0  0  0
 27 64  1  0  0  0  0
 28 30  1  0  0  0  0
 28 65  1  0  0  0  0
 28 66  1  0  0  0  0
 29 31  2  0  0  0  0
 29 67  1  0  0  0  0
 30 33  1  0  0  0  0
 30 68  1  0  0  0  0
 30 69  1  0  0  0  0
 31 70  1  0  0  0  0
 33 38  1  0  0  0  0
 33 71  1  0  0  0  0
 33 72  1  0  0  0  0
 35 36  2  0  0  0  0
 35 73  1  0  0  0  0
 36 37  1  0  0  0  0
 36 74  1  0  0  0  0
 37 39  1  0  0  0  0
 37 75  1  0  0  0  0
 37 76  1  0  0  0  0
 38 77  1  0  0  0  0
 38 78  1  0  0  0  0
 38 79  1  0  0  0  0
 39 40  1  0  0  0  0
 39 80  1  0  0  0  0
 39 81  1  0  0  0  0
 40 41  1  0  0  0  0
 40 82  1  0  0  0  0
 40 83  1  0  0  0  0
M  END
> <ConfClashScore>
0 

> <ConfOneFourInteractionScore>
-0.987431 

> <ConfScore>
0.0100421 

> <ConfScorePBest>
0.00495728 

> <ConfTolerance>
1.83321 

$$$$
9548876
  PyMOL2.2          3D                             0

 83 83  0  0  0  0  0  0  0  0999 V2000
   -5.0225   -1.0202   -0.1107 H   0  0  0  1  0  0  0  0  0  0  0  0
   -3.4389    3.4750   -1.1395 H   0  0  0  1  0  0  0  0  0  0  0  0
   -2.1856    3.5047    0.0774 H   0  0  0  1  0  0  0  0  0  0  0  0
   -3.1839    3.1874   -0.1409 C   0  0  0  1  0  0  0  0  0  0  0  0
   -3.8630    3.6467    0.5466 H   0  0  0  1  0  0  0  0  0  0  0  0
  -10.3770    0.8876    4.2898 N   0  0  0  1  0  0  0  0  0  0  0  0
  -10.6581   -0.2559    1.3306 C   0  0  0  1  0  0  0  0  0  0  0  0
  -11.6122   -0.7281    0.2410 C   0  0  0  1  0  0  0  0  0  0  0  0
  -10.3472   -0.9841    2.2595 O   0  0  0  1  0  0  0  0  0  0  0  0
  -11.0061    1.1128    5.5813 C   0  0  0  1  0  0  0  0  0  0  0  0
    1.8358    3.0860   -0.6078 O   0  0  0  1  0  0  0  0  0  0  0  0
  -10.3527    3.0780    3.7941 O   0  0  0  1  0  0  0  0  0  0  0  0
  -10.1931    0.9970    1.1962 N   0  0  0  1  0  0  0  0  0  0  0  0
   -7.5993   -5.9325   -3.4016 O   0  5  0  1  0  0  0  0  0  0  0  0
   -4.4600    1.0649   -0.2026 N   0  0  0  1  0  0  0  0  0  0  0  0
   -5.7122   -5.2899   -4.5279 O   0  0  0  1  0  0  0  0  0  0  0  0
   -7.8260    2.7157    0.4770 C   0  0  0  1  0  0  0  0  0  0  0  0
   -8.7008    2.9186    1.6892 C   0  0  0  1  0  0  0  0  0  0  0  0
   -2.3160    0.7466    0.2897 C   0  0  0  1  0  0  0  0  0  0  0  0
   -6.5994    1.8446    0.6938 C   0  0  0  1  0  0  0  0  0  0  0  0
   -2.9568   -0.5010    0.2803 C   0  0  0  1  0  0  0  0  0  0  0  0
    1.0729    3.0674    1.6900 C   0  0  0  1  0  0  0  0  0  0  0  0
   -9.3450    1.6224    2.1982 C   0  0  0  1  0  0  0  0  0  0  0  0
   -5.7250    1.7174   -0.5420 C   0  0  0  1  0  0  0  0  0  0  0  0
   -2.2585   -1.8097    0.5649 C   0  0  0  1  0  0  0  0  0  0  0  0
  -10.0980    1.9253    3.4863 C   0  0  0  1  0  0  0  0  0  0  0  0
    1.2155    2.2746    0.3849 C   0  0  0  1  0  0  0  0  0  0  0  0
    0.7440    2.1957    2.8921 C   0  0  0  1  0  0  0  0  0  0  0  0
   -0.9038    0.9796    0.5666 C   0  0  0  1  0  0  0  0  0  0  0  0
    0.2530    2.9871    4.0946 C   0  0  0  1  0  0  0  0  0  0  0  0
   -0.1235    1.8057   -0.0886 C   0  0  0  1  0  0  0  0  0  0  0  0
   -3.2732    1.7057   -0.0119 C   0  0  0  1  0  0  0  0  0  0  0  0
    0.0128    2.1277    5.3240 C   0  0  0  1  0  0  0  0  0  0  0  0
   -4.2868   -0.2899   -0.0271 C   0  0  0  1  0  0  0  0  0  0  0  0
   -1.7697   -2.5313   -0.6508 C   0  0  0  1  0  0  0  0  0  0  0  0
   -2.3194   -3.5702   -1.1550 C   0  0  0  1  0  0  0  0  0  0  0  0
   -3.6686   -4.2063   -0.9523 C   0  0  0  1  0  0  0  0  0  0  0  0
   -0.3477    2.9318    6.5588 C   0  0  0  1  0  0  0  0  0  0  0  0
   -4.3655   -4.5178   -2.2326 C   0  0  0  1  0  0  0  0  0  0  0  0
   -5.7109   -5.2270   -2.1508 C   0  0  0  1  0  0  0  0  0  0  0  0
   -6.3200   -5.4790   -3.4871 C   0  0  0  1  0  0  0  0  0  0  0  0
  -10.1563   -0.0240    4.0057 H   0  0  0  1  0  0  0  0  0  0  0  0
  -11.8034    0.0755   -0.4392 H   0  0  0  1  0  0  0  0  0  0  0  0
  -12.5323   -1.0451    0.6858 H   0  0  0  1  0  0  0  0  0  0  0  0
  -11.1711   -1.5463   -0.2889 H   0  0  0  1  0  0  0  0  0  0  0  0
  -11.2260    2.1537    5.6948 H   0  0  0  1  0  0  0  0  0  0  0  0
  -10.3418    0.8018    6.3604 H   0  0  0  1  0  0  0  0  0  0  0  0
  -11.9133    0.5484    5.6391 H   0  0  0  1  0  0  0  0  0  0  0  0
    2.1635    2.5292   -1.3179 H   0  0  0  1  0  0  0  0  0  0  0  0
  -10.4338    1.5074    0.3950 H   0  0  0  1  0  0  0  0  0  0  0  0
   -7.4929    3.6773    0.1463 H   0  0  0  1  0  0  0  0  0  0  0  0
   -8.4217    2.2618   -0.2871 H   0  0  0  1  0  0  0  0  0  0  0  0
   -9.4793    3.6070    1.4343 H   0  0  0  1  0  0  0  0  0  0  0  0
   -8.1023    3.3311    2.4744 H   0  0  0  1  0  0  0  0  0  0  0  0
   -6.9245    0.8666    0.9815 H   0  0  0  1  0  0  0  0  0  0  0  0
   -6.0143    2.2723    1.4809 H   0  0  0  1  0  0  0  0  0  0  0  0
    0.2891    3.7853    1.5669 H   0  0  0  1  0  0  0  0  0  0  0  0
    1.9953    3.5749    1.8811 H   0  0  0  1  0  0  0  0  0  0  0  0
   -8.5527    0.9451    2.4399 H   0  0  0  1  0  0  0  0  0  0  0  0
   -6.2369    1.1337   -1.2782 H   0  0  0  1  0  0  0  0  0  0  0  0
   -5.5250    2.6924   -0.9348 H   0  0  0  1  0  0  0  0  0  0  0  0
   -2.9450   -2.4494    1.0791 H   0  0  0  1  0  0  0  0  0  0  0  0
   -1.4171   -1.6090    1.1947 H   0  0  0  1  0  0  0  0  0  0  0  0
    1.8237    1.4162    0.5799 H   0  0  0  1  0  0  0  0  0  0  0  0
    1.6267    1.6612    3.1753 H   0  0  0  1  0  0  0  0  0  0  0  0
   -0.0188    1.5009    2.6088 H   0  0  0  1  0  0  0  0  0  0  0  0
   -0.4785    0.4452    1.3509 H   0  0  0  1  0  0  0  0  0  0  0  0
   -0.6661    3.4679    3.8319 H   0  0  0  1  0  0  0  0  0  0  0  0
    0.9869    3.7273    4.3362 H   0  0  0  1  0  0  0  0  0  0  0  0
   -0.4612    2.1612   -1.0058 H   0  0  0  1  0  0  0  0  0  0  0  0
    0.9042    1.5723    5.5291 H   0  0  0  1  0  0  0  0  0  0  0  0
   -0.7890    1.4511    5.1136 H   0  0  0  1  0  0  0  0  0  0  0  0
   -0.9194   -2.1605   -1.1211 H   0  0  0  1  0  0  0  0  0  0  0  0
   -1.7173   -4.0733   -1.8376 H   0  0  0  1  0  0  0  0  0  0  0  0
   -4.2800   -3.5351   -0.3862 H   0  0  0  1  0  0  0  0  0  0  0  0
   -3.5372   -5.1168   -0.4058 H   0  0  0  1  0  0  0  0  0  0  0  0
   -0.4021    2.2804    7.4059 H   0  0  0  1  0  0  0  0  0  0  0  0
   -1.2961    3.4049    6.4116 H   0  0  0  1  0  0  0  0  0  0  0  0
    0.4006    3.6772    6.7298 H   0  0  0  1  0  0  0  0  0  0  0  0
   -3.7118   -5.1379   -2.8097 H   0  0  0  1  0  0  0  0  0  0  0  0
   -4.5231   -3.5914   -2.7443 H   0  0  0  1  0  0  0  0  0  0  0  0
   -6.3818   -4.6198   -1.5798 H   0  0  0  1  0  0  0  0  0  0  0  0
   -5.5714   -6.1662   -1.6575 H   0  0  0  1  0  0  0  0  0  0  0  0
  1 34  1  0  0  0  0
  2  4  1  0  0  0  0
  3  4  1  0  0  0  0
  4  5  1  0  0  0  0
  4 32  1  0  0  0  0
  6 10  1  0  0  0  0
  6 26  1  0  0  0  0
  6 42  1  0  0  0  0
  7  8  1  0  0  0  0
  7  9  2  0  0  0  0
  7 13  1  0  0  0  0
  8 43  1  0  0  0  0
  8 44  1  0  0  0  0
  8 45  1  0  0  0  0
 10 46  1  0  0  0  0
 10 47  1  0  0  0  0
 10 48  1  0  0  0  0
 11 27  1  0  0  0  0
 11 49  1  0  0  0  0
 12 26  2  0  0  0  0
 13 23  1  0  0  0  0
 13 50  1  0  0  0  0
 14 41  1  0  0  0  0
 15 24  1  0  0  0  0
 15 32  4  0  0  0  0
 15 34  4  0  0  0  0
 16 41  2  0  0  0  0
 17 18  1  0  0  0  0
 17 20  1  0  0  0  0
 17 51  1  0  0  0  0
 17 52  1  0  0  0  0
 18 23  1  0  0  0  0
 18 53  1  0  0  0  0
 18 54  1  0  0  0  0
 19 21  4  0  0  0  0
 19 29  1  0  0  0  0
 19 32  4  0  0  0  0
 20 24  1  0  0  0  0
 20 55  1  0  0  0  0
 20 56  1  0  0  0  0
 21 25  1  0  0  0  0
 21 34  4  0  0  0  0
 22 27  1  0  0  0  0
 22 28  1  0  0  0  0
 22 57  1  0  0  0  0
 22 58  1  0  0  0  0
 23 26  1  0  0  0  0
 23 59  1  0  0  0  0
 24 60  1  0  0  0  0
 24 61  1  0  0  0  0
 25 35  1  0  0  0  0
 25 62  1  0  0  0  0
 25 63  1  0  0  0  0
 27 31  1  0  0  0  0
 27 64  1  0  0  0  0
 28 30  1  0  0  0  0
 28 65  1  0  0  0  0
 28 66  1  0  0  0  0
 29 31  2  0  0  0  0
 29 67  1  0  0  0  0
 30 33  1  0  0  0  0
 30 68  1  0  0  0  0
 30 69  1  0  0  0  0
 31 70  1  0  0  0  0
 33 38  1  0  0  0  0
 33 71  1  0  0  0  0
 33 72  1  0  0  0  0
 35 36  2  0  0  0  0
 35 73  1  0  0  0  0
 36 37  1  0  0  0  0
 36 74  1  0  0  0  0
 37 39  1  0  0  0  0
 37 75  1  0  0  0  0
 37 76  1  0  0  0  0
 38 77  1  0  0  0  0
 38 78  1  0  0  0  0
 38 79  1  0  0  0  0
 39 40  1  0  0  0  0
 39 80  1  0  0  0  0
 39 81  1  0  0  0  0
 40 41  1  0  0  0  0
 40 82  1  0  0  0  0
 40 83  1  0  0  0  0
M  END
> <ConfClashScore>
0 

> <ConfOneFourInteractionScore>
-0.991498 

> <ConfScore>
0.0118366 

> <ConfScorePBest>
0.0049288 

> <ConfTolerance>
2.00816 

$$$$
9548876
  PyMOL2.2          3D                             0

 83 83  0  0  0  0  0  0  0  0999 V2000
   -5.0110   -1.0101   -0.1164 H   0  0  0  1  0  0  0  0  0  0  0  0
   -2.2240    3.4866   -0.4503 H   0  0  0  1  0  0  0  0  0  0  0  0
   -3.4267    3.6464    0.8069 H   0  0  0  1  0  0  0  0  0  0  0  0
   -3.2024    3.1899   -0.1345 C   0  0  0  1  0  0  0  0  0  0  0  0
   -3.9217    3.5012   -0.8629 H   0  0  0  1  0  0  0  0  0  0  0  0
   -8.4165   -1.1202   -2.8430 N   0  0  0  1  0  0  0  0  0  0  0  0
   -7.7636   -0.0866   -6.5981 C   0  0  0  1  0  0  0  0  0  0  0  0
   -8.2067    0.0500   -8.0418 C   0  0  0  1  0  0  0  0  0  0  0  0
   -6.8840   -0.8863   -6.2810 O   0  0  0  1  0  0  0  0  0  0  0  0
   -9.1939   -1.9012   -1.8925 C   0  0  0  1  0  0  0  0  0  0  0  0
    1.9057    1.0504    0.3301 O   0  0  0  1  0  0  0  0  0  0  0  0
  -10.0305    0.4023   -3.2479 O   0  0  0  1  0  0  0  0  0  0  0  0
   -8.3561    0.6862   -5.6834 N   0  0  0  1  0  0  0  0  0  0  0  0
    3.9030   -3.5255    1.6950 O   0  5  0  1  0  0  0  0  0  0  0  0
   -4.4367    1.0720   -0.2028 N   0  0  0  1  0  0  0  0  0  0  0  0
    3.9890   -5.2844    0.2708 O   0  0  0  1  0  0  0  0  0  0  0  0
   -7.2676    2.3537   -2.4062 C   0  0  0  1  0  0  0  0  0  0  0  0
   -7.6850    2.1835   -3.8459 C   0  0  0  1  0  0  0  0  0  0  0  0
   -2.3040    0.7446    0.3308 C   0  0  0  1  0  0  0  0  0  0  0  0
   -6.0605    1.5135   -2.0257 C   0  0  0  1  0  0  0  0  0  0  0  0
   -2.9506   -0.4999    0.3125 C   0  0  0  1  0  0  0  0  0  0  0  0
    1.5786    3.0770   -0.9144 C   0  0  0  1  0  0  0  0  0  0  0  0
   -7.9065    0.7382   -4.3016 C   0  0  0  1  0  0  0  0  0  0  0  0
   -5.6918    1.7298   -0.5679 C   0  0  0  1  0  0  0  0  0  0  0  0
   -2.3010   -1.8543    0.5086 C   0  0  0  1  0  0  0  0  0  0  0  0
   -8.9022   -0.0238   -3.4321 C   0  0  0  1  0  0  0  0  0  0  0  0
    1.2119    2.2822    0.3483 C   0  0  0  1  0  0  0  0  0  0  0  0
    1.1705    2.3828   -2.2027 C   0  0  0  1  0  0  0  0  0  0  0  0
   -0.8798    0.9764    0.5386 C   0  0  0  1  0  0  0  0  0  0  0  0
    1.6117    3.1263   -3.4541 C   0  0  0  1  0  0  0  0  0  0  0  0
   -0.2716    2.1396    0.4455 C   0  0  0  1  0  0  0  0  0  0  0  0
   -3.2506    1.7076    0.0087 C   0  0  0  1  0  0  0  0  0  0  0  0
    3.0395    3.6093   -3.3907 C   0  0  0  1  0  0  0  0  0  0  0  0
   -4.2735   -0.2831   -0.0207 C   0  0  0  1  0  0  0  0  0  0  0  0
   -1.6182   -2.3985   -0.7058 C   0  0  0  1  0  0  0  0  0  0  0  0
   -0.3753   -2.8077   -0.7971 C   0  0  0  1  0  0  0  0  0  0  0  0
    0.5208   -3.1066    0.3750 C   0  0  0  1  0  0  0  0  0  0  0  0
    3.5193    4.3934   -4.6012 C   0  0  0  1  0  0  0  0  0  0  0  0
    0.9448   -4.5120    0.4314 C   0  0  0  1  0  0  0  0  0  0  0  0
    1.9704   -4.9536    1.4672 C   0  0  0  1  0  0  0  0  0  0  0  0
    3.3701   -4.6169    1.0832 C   0  0  0  1  0  0  0  0  0  0  0  0
   -7.5050   -1.4085   -3.0585 H   0  0  0  1  0  0  0  0  0  0  0  0
   -9.2195    0.3937   -8.0736 H   0  0  0  1  0  0  0  0  0  0  0  0
   -8.1376   -0.9010   -8.5273 H   0  0  0  1  0  0  0  0  0  0  0  0
   -7.5756    0.7537   -8.5433 H   0  0  0  1  0  0  0  0  0  0  0  0
  -10.2363   -1.7906   -2.1073 H   0  0  0  1  0  0  0  0  0  0  0  0
   -8.9958   -1.5544   -0.8998 H   0  0  0  1  0  0  0  0  0  0  0  0
   -8.9213   -2.9328   -1.9715 H   0  0  0  1  0  0  0  0  0  0  0  0
    2.8499    1.2135    0.3891 H   0  0  0  1  0  0  0  0  0  0  0  0
   -9.1204    1.2371   -5.9532 H   0  0  0  1  0  0  0  0  0  0  0  0
   -8.0880    2.0722   -1.7796 H   0  0  0  1  0  0  0  0  0  0  0  0
   -7.0295    3.3838   -2.2415 H   0  0  0  1  0  0  0  0  0  0  0  0
   -6.9220    2.6102   -4.4628 H   0  0  0  1  0  0  0  0  0  0  0  0
   -8.6006    2.7182   -3.9890 H   0  0  0  1  0  0  0  0  0  0  0  0
   -5.2313    1.7912   -2.6422 H   0  0  0  1  0  0  0  0  0  0  0  0
   -6.2898    0.4798   -2.1799 H   0  0  0  1  0  0  0  0  0  0  0  0
    2.6387    3.2218   -0.9282 H   0  0  0  1  0  0  0  0  0  0  0  0
    1.0888    4.0273   -0.8713 H   0  0  0  1  0  0  0  0  0  0  0  0
   -6.9661    0.2324   -4.2329 H   0  0  0  1  0  0  0  0  0  0  0  0
   -5.5921    2.7805   -0.3917 H   0  0  0  1  0  0  0  0  0  0  0  0
   -6.4756    1.3375    0.0459 H   0  0  0  1  0  0  0  0  0  0  0  0
   -3.0596   -2.5486    0.8043 H   0  0  0  1  0  0  0  0  0  0  0  0
   -1.5741   -1.7659    1.2888 H   0  0  0  1  0  0  0  0  0  0  0  0
    1.5383    2.8532    1.1923 H   0  0  0  1  0  0  0  0  0  0  0  0
    0.1042    2.2957   -2.2180 H   0  0  0  1  0  0  0  0  0  0  0  0
    1.6089    1.4068   -2.2157 H   0  0  0  1  0  0  0  0  0  0  0  0
   -0.2942    0.1519    0.7813 H   0  0  0  1  0  0  0  0  0  0  0  0
    0.9725    3.9738   -3.5882 H   0  0  0  1  0  0  0  0  0  0  0  0
    1.5131    2.4683   -4.2921 H   0  0  0  1  0  0  0  0  0  0  0  0
   -0.8526    3.0022    0.4393 H   0  0  0  1  0  0  0  0  0  0  0  0
    3.6723    2.7535   -3.2803 H   0  0  0  1  0  0  0  0  0  0  0  0
    3.1366    4.2386   -2.5308 H   0  0  0  1  0  0  0  0  0  0  0  0
   -2.1910   -2.4591   -1.5717 H   0  0  0  1  0  0  0  0  0  0  0  0
    0.0206   -2.9350   -1.7503 H   0  0  0  1  0  0  0  0  0  0  0  0
   -0.0077   -2.8739    1.2758 H   0  0  0  1  0  0  0  0  0  0  0  0
    1.3926   -2.4904    0.3030 H   0  0  0  1  0  0  0  0  0  0  0  0
    3.3570    3.8165   -5.4876 H   0  0  0  1  0  0  0  0  0  0  0  0
    4.5635    4.6034   -4.4988 H   0  0  0  1  0  0  0  0  0  0  0  0
    2.9752    5.3122   -4.6693 H   0  0  0  1  0  0  0  0  0  0  0  0
    1.3521   -4.7511   -0.5287 H   0  0  0  1  0  0  0  0  0  0  0  0
    0.0635   -5.0946    0.6007 H   0  0  0  1  0  0  0  0  0  0  0  0
    1.8964   -6.0141    1.5891 H   0  0  0  1  0  0  0  0  0  0  0  0
    1.7465   -4.4710    2.3955 H   0  0  0  1  0  0  0  0  0  0  0  0
  1 34  1  0  0  0  0
  2  4  1  0  0  0  0
  3  4  1  0  0  0  0
  4  5  1  0  0  0  0
  4 32  1  0  0  0  0
  6 10  1  0  0  0  0
  6 26  1  0  0  0  0
  6 42  1  0  0  0  0
  7  8  1  0  0  0  0
  7  9  2  0  0  0  0
  7 13  1  0  0  0  0
  8 43  1  0  0  0  0
  8 44  1  0  0  0  0
  8 45  1  0  0  0  0
 10 46  1  0  0  0  0
 10 47  1  0  0  0  0
 10 48  1  0  0  0  0
 11 27  1  0  0  0  0
 11 49  1  0  0  0  0
 12 26  2  0  0  0  0
 13 23  1  0  0  0  0
 13 50  1  0  0  0  0
 14 41  1  0  0  0  0
 15 24  1  0  0  0  0
 15 32  4  0  0  0  0
 15 34  4  0  0  0  0
 16 41  2  0  0  0  0
 17 18  1  0  0  0  0
 17 20  1  0  0  0  0
 17 51  1  0  0  0  0
 17 52  1  0  0  0  0
 18 23  1  0  0  0  0
 18 53  1  0  0  0  0
 18 54  1  0  0  0  0
 19 21  4  0  0  0  0
 19 29  1  0  0  0  0
 19 32  4  0  0  0  0
 20 24  1  0  0  0  0
 20 55  1  0  0  0  0
 20 56  1  0  0  0  0
 21 25  1  0  0  0  0
 21 34  4  0  0  0  0
 22 27  1  0  0  0  0
 22 28  1  0  0  0  0
 22 57  1  0  0  0  0
 22 58  1  0  0  0  0
 23 26  1  0  0  0  0
 23 59  1  0  0  0  0
 24 60  1  0  0  0  0
 24 61  1  0  0  0  0
 25 35  1  0  0  0  0
 25 62  1  0  0  0  0
 25 63  1  0  0  0  0
 27 31  1  0  0  0  0
 27 64  1  0  0  0  0
 28 30  1  0  0  0  0
 28 65  1  0  0  0  0
 28 66  1  0  0  0  0
 29 31  2  0  0  0  0
 29 67  1  0  0  0  0
 30 33  1  0  0  0  0
 30 68  1  0  0  0  0
 30 69  1  0  0  0  0
 31 70  1  0  0  0  0
 33 38  1  0  0  0  0
 33 71  1  0  0  0  0
 33 72  1  0  0  0  0
 35 36  2  0  0  0  0
 35 73  1  0  0  0  0
 36 37  1  0  0  0  0
 36 74  1  0  0  0  0
 37 39  1  0  0  0  0
 37 75  1  0  0  0  0
 37 76  1  0  0  0  0
 38 77  1  0  0  0  0
 38 78  1  0  0  0  0
 38 79  1  0  0  0  0
 39 40  1  0  0  0  0
 39 80  1  0  0  0  0
 39 81  1  0  0  0  0
 40 41  1  0  0  0  0
 40 82  1  0  0  0  0
 40 83  1  0  0  0  0
M  END
> <ConfClashScore>
0 

> <ConfOneFourInteractionScore>
-0.99476 

> <ConfScore>
0.0146951 

> <ConfScorePBest>
0.00490032 

> <ConfTolerance>
1.83862 

$$$$
9548876
  PyMOL2.2          3D                             0

 83 83  0  0  0  0  0  0  0  0999 V2000
   -4.9962   -1.0481   -0.1400 H   0  0  0  1  0  0  0  0  0  0  0  0
   -4.1200    3.6406    0.0691 H   0  0  0  1  0  0  0  0  0  0  0  0
   -2.8841    3.4393   -1.1493 H   0  0  0  1  0  0  0  0  0  0  0  0
   -3.1761    3.1873   -0.1513 C   0  0  0  1  0  0  0  0  0  0  0  0
   -2.4395    3.5449    0.5375 H   0  0  0  1  0  0  0  0  0  0  0  0
  -10.0466    5.2694   -0.2552 N   0  0  0  1  0  0  0  0  0  0  0  0
   -8.8296    7.6154   -2.2332 C   0  0  0  1  0  0  0  0  0  0  0  0
   -8.6911    9.0086   -1.6624 C   0  0  0  1  0  0  0  0  0  0  0  0
   -9.4807    7.4150   -3.2576 O   0  0  0  1  0  0  0  0  0  0  0  0
  -11.2632    4.8357    0.4155 C   0  0  0  1  0  0  0  0  0  0  0  0
    1.6717    1.3239    1.4947 O   0  0  0  1  0  0  0  0  0  0  0  0
  -10.1449    3.6213   -1.7917 O   0  0  0  1  0  0  0  0  0  0  0  0
   -8.2246    6.6111   -1.5924 N   0  0  0  1  0  0  0  0  0  0  0  0
    0.2368   -8.8601    1.6513 O   0  5  0  1  0  0  0  0  0  0  0  0
   -4.4670    1.0456   -0.2343 N   0  0  0  1  0  0  0  0  0  0  0  0
    1.0638   -7.1347    2.9089 O   0  0  0  1  0  0  0  0  0  0  0  0
   -7.2064    2.9634   -2.1179 C   0  0  0  1  0  0  0  0  0  0  0  0
   -7.1195    4.4175   -1.6805 C   0  0  0  1  0  0  0  0  0  0  0  0
   -2.3265    0.7657    0.2952 C   0  0  0  1  0  0  0  0  0  0  0  0
   -5.9204    2.1876   -1.8888 C   0  0  0  1  0  0  0  0  0  0  0  0
   -2.9462   -0.4924    0.2822 C   0  0  0  1  0  0  0  0  0  0  0  0
    1.8404    3.2827    0.0776 C   0  0  0  1  0  0  0  0  0  0  0  0
   -8.3775    5.2232   -2.0024 C   0  0  0  1  0  0  0  0  0  0  0  0
   -5.7476    1.7184   -0.4543 C   0  0  0  1  0  0  0  0  0  0  0  0
   -2.2791   -1.8199    0.5779 C   0  0  0  1  0  0  0  0  0  0  0  0
   -9.5973    4.6063   -1.3245 C   0  0  0  1  0  0  0  0  0  0  0  0
    1.0044    2.5125    1.1136 C   0  0  0  1  0  0  0  0  0  0  0  0
    1.1726    4.5583   -0.4070 C   0  0  0  1  0  0  0  0  0  0  0  0
   -0.9231    1.0238    0.5942 C   0  0  0  1  0  0  0  0  0  0  0  0
    1.8316    5.1521   -1.6426 C   0  0  0  1  0  0  0  0  0  0  0  0
   -0.3274    2.1897    0.5142 C   0  0  0  1  0  0  0  0  0  0  0  0
   -3.2943    1.7072   -0.0276 C   0  0  0  1  0  0  0  0  0  0  0  0
    1.9791    6.6636   -1.5794 C   0  0  0  1  0  0  0  0  0  0  0  0
   -4.2742   -0.3051   -0.0484 C   0  0  0  1  0  0  0  0  0  0  0  0
   -2.1697   -2.0837    2.0461 C   0  0  0  1  0  0  0  0  0  0  0  0
   -2.2816   -3.2644    2.6064 C   0  0  0  1  0  0  0  0  0  0  0  0
   -2.2271   -4.6030    1.9200 C   0  0  0  1  0  0  0  0  0  0  0  0
    2.5758    7.2641   -2.8418 C   0  0  0  1  0  0  0  0  0  0  0  0
   -1.0522   -5.4431    2.3556 C   0  0  0  1  0  0  0  0  0  0  0  0
   -1.0491   -6.8762    1.8491 C   0  0  0  1  0  0  0  0  0  0  0  0
    0.1948   -7.6170    2.2014 C   0  0  0  1  0  0  0  0  0  0  0  0
   -9.5560    6.0495    0.0782 H   0  0  0  1  0  0  0  0  0  0  0  0
   -7.6553    9.2715   -1.6094 H   0  0  0  1  0  0  0  0  0  0  0  0
   -9.1164    9.0355   -0.6809 H   0  0  0  1  0  0  0  0  0  0  0  0
   -9.2037    9.7046   -2.2930 H   0  0  0  1  0  0  0  0  0  0  0  0
  -11.1430    4.9369    1.4739 H   0  0  0  1  0  0  0  0  0  0  0  0
  -11.4568    3.8111    0.1752 H   0  0  0  1  0  0  0  0  0  0  0  0
  -12.0841    5.4401    0.0906 H   0  0  0  1  0  0  0  0  0  0  0  0
    1.8704    0.8033    0.7130 H   0  0  0  1  0  0  0  0  0  0  0  0
   -7.6582    6.8163   -0.8194 H   0  0  0  1  0  0  0  0  0  0  0  0
   -7.4373    2.9365   -3.1624 H   0  0  0  1  0  0  0  0  0  0  0  0
   -7.9913    2.4895   -1.5664 H   0  0  0  1  0  0  0  0  0  0  0  0
   -6.2886    4.8724   -2.1781 H   0  0  0  1  0  0  0  0  0  0  0  0
   -6.9607    4.4446   -0.6227 H   0  0  0  1  0  0  0  0  0  0  0  0
   -5.0940    2.8186   -2.1413 H   0  0  0  1  0  0  0  0  0  0  0  0
   -5.9232    1.3297   -2.5283 H   0  0  0  1  0  0  0  0  0  0  0  0
    2.0066    2.6454   -0.7657 H   0  0  0  1  0  0  0  0  0  0  0  0
    2.7793    3.5391    0.5221 H   0  0  0  1  0  0  0  0  0  0  0  0
   -8.5322    5.1877   -3.0606 H   0  0  0  1  0  0  0  0  0  0  0  0
   -5.8042    2.5682    0.1935 H   0  0  0  1  0  0  0  0  0  0  0  0
   -6.5379    1.0366   -0.2189 H   0  0  0  1  0  0  0  0  0  0  0  0
   -1.2961   -1.8130    0.1552 H   0  0  0  1  0  0  0  0  0  0  0  0
   -2.8552   -2.6022    0.1295 H   0  0  0  1  0  0  0  0  0  0  0  0
    0.8546    3.1420    1.9659 H   0  0  0  1  0  0  0  0  0  0  0  0
    1.2127    5.2823    0.3798 H   0  0  0  1  0  0  0  0  0  0  0  0
    0.1513    4.3395   -0.6393 H   0  0  0  1  0  0  0  0  0  0  0  0
   -0.3447    0.2141    0.8968 H   0  0  0  1  0  0  0  0  0  0  0  0
    1.2363    4.9047   -2.4966 H   0  0  0  1  0  0  0  0  0  0  0  0
    2.8049    4.7204   -1.7485 H   0  0  0  1  0  0  0  0  0  0  0  0
   -0.8177    2.9459   -0.0047 H   0  0  0  1  0  0  0  0  0  0  0  0
    2.6146    6.9082   -0.7541 H   0  0  0  1  0  0  0  0  0  0  0  0
    1.0112    7.0927   -1.4243 H   0  0  0  1  0  0  0  0  0  0  0  0
   -1.9917   -1.2703    2.6692 H   0  0  0  1  0  0  0  0  0  0  0  0
   -2.4234   -3.2771    3.6366 H   0  0  0  1  0  0  0  0  0  0  0  0
   -2.1579   -4.4419    0.8644 H   0  0  0  1  0  0  0  0  0  0  0  0
   -3.1279   -5.1363    2.1415 H   0  0  0  1  0  0  0  0  0  0  0  0
    3.1259    8.1472   -2.5917 H   0  0  0  1  0  0  0  0  0  0  0  0
    1.7898    7.5147   -3.5232 H   0  0  0  1  0  0  0  0  0  0  0  0
    3.2318    6.5531   -3.2991 H   0  0  0  1  0  0  0  0  0  0  0  0
   -1.0460   -5.4715    3.4252 H   0  0  0  1  0  0  0  0  0  0  0  0
   -0.1596   -4.9679    2.0057 H   0  0  0  1  0  0  0  0  0  0  0  0
   -1.1463   -6.8611    0.7836 H   0  0  0  1  0  0  0  0  0  0  0  0
   -1.8844   -7.3904    2.2767 H   0  0  0  1  0  0  0  0  0  0  0  0
  1 34  1  0  0  0  0
  2  4  1  0  0  0  0
  3  4  1  0  0  0  0
  4  5  1  0  0  0  0
  4 32  1  0  0  0  0
  6 10  1  0  0  0  0
  6 26  1  0  0  0  0
  6 42  1  0  0  0  0
  7  8  1  0  0  0  0
  7  9  2  0  0  0  0
  7 13  1  0  0  0  0
  8 43  1  0  0  0  0
  8 44  1  0  0  0  0
  8 45  1  0  0  0  0
 10 46  1  0  0  0  0
 10 47  1  0  0  0  0
 10 48  1  0  0  0  0
 11 27  1  0  0  0  0
 11 49  1  0  0  0  0
 12 26  2  0  0  0  0
 13 23  1  0  0  0  0
 13 50  1  0  0  0  0
 14 41  1  0  0  0  0
 15 24  1  0  0  0  0
 15 32  4  0  0  0  0
 15 34  4  0  0  0  0
 16 41  2  0  0  0  0
 17 18  1  0  0  0  0
 17 20  1  0  0  0  0
 17 51  1  0  0  0  0
 17 52  1  0  0  0  0
 18 23  1  0  0  0  0
 18 53  1  0  0  0  0
 18 54  1  0  0  0  0
 19 21  4  0  0  0  0
 19 29  1  0  0  0  0
 19 32  4  0  0  0  0
 20 24  1  0  0  0  0
 20 55  1  0  0  0  0
 20 56  1  0  0  0  0
 21 25  1  0  0  0  0
 21 34  4  0  0  0  0
 22 27  1  0  0  0  0
 22 28  1  0  0  0  0
 22 57  1  0  0  0  0
 22 58  1  0  0  0  0
 23 26  1  0  0  0  0
 23 59  1  0  0  0  0
 24 60  1  0  0  0  0
 24 61  1  0  0  0  0
 25 35  1  0  0  0  0
 25 62  1  0  0  0  0
 25 63  1  0  0  0  0
 27 31  1  0  0  0  0
 27 64  1  0  0  0  0
 28 30  1  0  0  0  0
 28 65  1  0  0  0  0
 28 66  1  0  0  0  0
 29 31  2  0  0  0  0
 29 67  1  0  0  0  0
 30 33  1  0  0  0  0
 30 68  1  0  0  0  0
 30 69  1  0  0  0  0
 31 70  1  0  0  0  0
 33 38  1  0  0  0  0
 33 71  1  0  0  0  0
 33 72  1  0  0  0  0
 35 36  2  0  0  0  0
 35 73  1  0  0  0  0
 36 37  1  0  0  0  0
 36 74  1  0  0  0  0
 37 39  1  0  0  0  0
 37 75  1  0  0  0  0
 37 76  1  0  0  0  0
 38 77  1  0  0  0  0
 38 78  1  0  0  0  0
 38 79  1  0  0  0  0
 39 40  1  0  0  0  0
 39 80  1  0  0  0  0
 39 81  1  0  0  0  0
 40 41  1  0  0  0  0
 40 82  1  0  0  0  0
 40 83  1  0  0  0  0
M  END
> <ConfClashScore>
0 

> <ConfOneFourInteractionScore>
-0.984625 

> <ConfScore>
0.0213946 

> <ConfScorePBest>
0.00487184 

> <ConfTolerance>
1.88391 

$$$$
9548876
  PyMOL2.2          3D                             0

 83 83  0  0  0  0  0  0  0  0999 V2000
   -5.0128   -1.0060   -0.1038 H   0  0  0  1  0  0  0  0  0  0  0  0
   -2.8017    3.4522   -1.1078 H   0  0  0  1  0  0  0  0  0  0  0  0
   -2.5812    3.6024    0.6189 H   0  0  0  1  0  0  0  0  0  0  0  0
   -3.2024    3.1930   -0.1501 C   0  0  0  1  0  0  0  0  0  0  0  0
   -4.1920    3.5894   -0.0587 H   0  0  0  1  0  0  0  0  0  0  0  0
  -11.2442    3.8552   -0.8526 N   0  0  0  1  0  0  0  0  0  0  0  0
  -11.6938    4.2388    3.0370 C   0  0  0  1  0  0  0  0  0  0  0  0
  -12.3838    3.9912    4.3643 C   0  0  0  1  0  0  0  0  0  0  0  0
  -11.7593    5.3326    2.4776 O   0  0  0  1  0  0  0  0  0  0  0  0
  -12.0293    3.5545   -2.0405 C   0  0  0  1  0  0  0  0  0  0  0  0
    0.8619    1.4671    3.5221 O   0  0  0  1  0  0  0  0  0  0  0  0
  -11.3901    1.7544   -0.0866 O   0  0  0  1  0  0  0  0  0  0  0  0
  -11.0190    3.1963    2.5271 N   0  0  0  1  0  0  0  0  0  0  0  0
   -1.2487    3.2363    5.1864 O   0  5  0  1  0  0  0  0  0  0  0  0
   -4.4398    1.0763   -0.1945 N   0  0  0  1  0  0  0  0  0  0  0  0
   -3.4008    3.2494    4.4105 O   0  0  0  1  0  0  0  0  0  0  0  0
   -7.9306    2.6061    0.3140 C   0  0  0  1  0  0  0  0  0  0  0  0
   -8.8853    2.5743    1.4583 C   0  0  0  1  0  0  0  0  0  0  0  0
   -2.2923    0.7443    0.2727 C   0  0  0  1  0  0  0  0  0  0  0  0
   -6.7214    1.7310    0.5970 C   0  0  0  1  0  0  0  0  0  0  0  0
   -2.9401   -0.4996    0.2661 C   0  0  0  1  0  0  0  0  0  0  0  0
    1.7714    0.5730    1.4348 C   0  0  0  1  0  0  0  0  0  0  0  0
  -10.2123    3.3052    1.2930 C   0  0  0  1  0  0  0  0  0  0  0  0
   -5.7048    1.7370   -0.5176 C   0  0  0  1  0  0  0  0  0  0  0  0
   -2.2967   -1.8403    0.5308 C   0  0  0  1  0  0  0  0  0  0  0  0
  -11.0296    2.9098    0.0668 C   0  0  0  1  0  0  0  0  0  0  0  0
    0.9842    1.6963    2.1216 C   0  0  0  1  0  0  0  0  0  0  0  0
    3.1818    0.4087    1.9749 C   0  0  0  1  0  0  0  0  0  0  0  0
   -0.8905    0.9289    0.6353 C   0  0  0  1  0  0  0  0  0  0  0  0
    3.9146   -0.7844    1.3903 C   0  0  0  1  0  0  0  0  0  0  0  0
   -0.3954    1.7305    1.5448 C   0  0  0  1  0  0  0  0  0  0  0  0
   -3.2474    1.7098   -0.0148 C   0  0  0  1  0  0  0  0  0  0  0  0
    5.3160   -0.9604    1.9448 C   0  0  0  1  0  0  0  0  0  0  0  0
   -4.2722   -0.2801   -0.0258 C   0  0  0  1  0  0  0  0  0  0  0  0
   -1.5612   -1.9994    1.8235 C   0  0  0  1  0  0  0  0  0  0  0  0
   -1.8831   -1.4832    2.9831 C   0  0  0  1  0  0  0  0  0  0  0  0
   -3.1966   -0.8799    3.3678 C   0  0  0  1  0  0  0  0  0  0  0  0
    5.8794   -2.3159    1.5622 C   0  0  0  1  0  0  0  0  0  0  0  0
   -3.2098    0.6360    3.4789 C   0  0  0  1  0  0  0  0  0  0  0  0
   -2.3809    1.1624    4.6392 C   0  0  0  1  0  0  0  0  0  0  0  0
   -2.3895    2.6492    4.7354 C   0  0  0  1  0  0  0  0  0  0  0  0
  -10.8722    4.7531   -0.7267 H   0  0  0  1  0  0  0  0  0  0  0  0
  -11.8662    4.5167    5.1394 H   0  0  0  1  0  0  0  0  0  0  0  0
  -12.3778    2.9430    4.5790 H   0  0  0  1  0  0  0  0  0  0  0  0
  -13.3942    4.3391    4.3111 H   0  0  0  1  0  0  0  0  0  0  0  0
  -11.3736    3.3013   -2.8473 H   0  0  0  1  0  0  0  0  0  0  0  0
  -12.6111    4.4112   -2.3095 H   0  0  0  1  0  0  0  0  0  0  0  0
  -12.6803    2.7298   -1.8381 H   0  0  0  1  0  0  0  0  0  0  0  0
    0.1228    0.8770    3.6868 H   0  0  0  1  0  0  0  0  0  0  0  0
  -11.0627    2.3331    2.9889 H   0  0  0  1  0  0  0  0  0  0  0  0
   -7.6055    3.6133    0.1562 H   0  0  0  1  0  0  0  0  0  0  0  0
   -8.4245    2.2484   -0.5651 H   0  0  0  1  0  0  0  0  0  0  0  0
   -8.3870    3.0034    2.3024 H   0  0  0  1  0  0  0  0  0  0  0  0
   -9.1089    1.5474    1.6596 H   0  0  0  1  0  0  0  0  0  0  0  0
   -7.0572    0.7258    0.7445 H   0  0  0  1  0  0  0  0  0  0  0  0
   -6.2485    2.0842    1.4895 H   0  0  0  1  0  0  0  0  0  0  0  0
    1.8318    0.7914    0.3891 H   0  0  0  1  0  0  0  0  0  0  0  0
    1.2442   -0.3471    1.5777 H   0  0  0  1  0  0  0  0  0  0  0  0
   -9.9714    4.3406    1.1714 H   0  0  0  1  0  0  0  0  0  0  0  0
   -6.1339    1.2403   -1.3626 H   0  0  0  1  0  0  0  0  0  0  0  0
   -5.4939    2.7550   -0.7708 H   0  0  0  1  0  0  0  0  0  0  0  0
   -1.6010   -2.0258   -0.2607 H   0  0  0  1  0  0  0  0  0  0  0  0
   -3.0701   -2.5793    0.5069 H   0  0  0  1  0  0  0  0  0  0  0  0
    1.4706    2.6306    1.9334 H   0  0  0  1  0  0  0  0  0  0  0  0
    3.1265    0.2861    3.0364 H   0  0  0  1  0  0  0  0  0  0  0  0
    3.7379    1.2938    1.7460 H   0  0  0  1  0  0  0  0  0  0  0  0
   -0.2021    0.3549    0.1079 H   0  0  0  1  0  0  0  0  0  0  0  0
    3.9829   -0.6546    0.3304 H   0  0  0  1  0  0  0  0  0  0  0  0
    3.3509   -1.6679    1.6064 H   0  0  0  1  0  0  0  0  0  0  0  0
   -1.0303    2.4712    1.9052 H   0  0  0  1  0  0  0  0  0  0  0  0
    5.2837   -0.8822    3.0114 H   0  0  0  1  0  0  0  0  0  0  0  0
    5.9486   -0.1933    1.5495 H   0  0  0  1  0  0  0  0  0  0  0  0
   -0.7010   -2.5834    1.7987 H   0  0  0  1  0  0  0  0  0  0  0  0
   -1.1454   -1.4938    3.7161 H   0  0  0  1  0  0  0  0  0  0  0  0
   -3.4793   -1.2829    4.3178 H   0  0  0  1  0  0  0  0  0  0  0  0
   -3.9185   -1.1631    2.6305 H   0  0  0  1  0  0  0  0  0  0  0  0
    5.9963   -2.3673    0.4999 H   0  0  0  1  0  0  0  0  0  0  0  0
    5.2084   -3.0846    1.8845 H   0  0  0  1  0  0  0  0  0  0  0  0
    6.8308   -2.4521    2.0325 H   0  0  0  1  0  0  0  0  0  0  0  0
   -4.2216    0.9576    3.6114 H   0  0  0  1  0  0  0  0  0  0  0  0
   -2.8206    1.0461    2.5704 H   0  0  0  1  0  0  0  0  0  0  0  0
   -1.3701    0.8352    4.5117 H   0  0  0  1  0  0  0  0  0  0  0  0
   -2.7745    0.7599    5.5491 H   0  0  0  1  0  0  0  0  0  0  0  0
  1 34  1  0  0  0  0
  2  4  1  0  0  0  0
  3  4  1  0  0  0  0
  4  5  1  0  0  0  0
  4 32  1  0  0  0  0
  6 10  1  0  0  0  0
  6 26  1  0  0  0  0
  6 42  1  0  0  0  0
  7  8  1  0  0  0  0
  7  9  2  0  0  0  0
  7 13  1  0  0  0  0
  8 43  1  0  0  0  0
  8 44  1  0  0  0  0
  8 45  1  0  0  0  0
 10 46  1  0  0  0  0
 10 47  1  0  0  0  0
 10 48  1  0  0  0  0
 11 27  1  0  0  0  0
 11 49  1  0  0  0  0
 12 26  2  0  0  0  0
 13 23  1  0  0  0  0
 13 50  1  0  0  0  0
 14 41  1  0  0  0  0
 15 24  1  0  0  0  0
 15 32  4  0  0  0  0
 15 34  4  0  0  0  0
 16 41  2  0  0  0  0
 17 18  1  0  0  0  0
 17 20  1  0  0  0  0
 17 51  1  0  0  0  0
 17 52  1  0  0  0  0
 18 23  1  0  0  0  0
 18 53  1  0  0  0  0
 18 54  1  0  0  0  0
 19 21  4  0  0  0  0
 19 29  1  0  0  0  0
 19 32  4  0  0  0  0
 20 24  1  0  0  0  0
 20 55  1  0  0  0  0
 20 56  1  0  0  0  0
 21 25  1  0  0  0  0
 21 34  4  0  0  0  0
 22 27  1  0  0  0  0
 22 28  1  0  0  0  0
 22 57  1  0  0  0  0
 22 58  1  0  0  0  0
 23 26  1  0  0  0  0
 23 59  1  0  0  0  0
 24 60  1  0  0  0  0
 24 61  1  0  0  0  0
 25 35  1  0  0  0  0
 25 62  1  0  0  0  0
 25 63  1  0  0  0  0
 27 31  1  0  0  0  0
 27 64  1  0  0  0  0
 28 30  1  0  0  0  0
 28 65  1  0  0  0  0
 28 66  1  0  0  0  0
 29 31  2  0  0  0  0
 29 67  1  0  0  0  0
 30 33  1  0  0  0  0
 30 68  1  0  0  0  0
 30 69  1  0  0  0  0
 31 70  1  0  0  0  0
 33 38  1  0  0  0  0
 33 71  1  0  0  0  0
 33 72  1  0  0  0  0
 35 36  2  0  0  0  0
 35 73  1  0  0  0  0
 36 37  1  0  0  0  0
 36 74  1  0  0  0  0
 37 39  1  0  0  0  0
 37 75  1  0  0  0  0
 37 76  1  0  0  0  0
 38 77  1  0  0  0  0
 38 78  1  0  0  0  0
 38 79  1  0  0  0  0
 39 40  1  0  0  0  0
 39 80  1  0  0  0  0
 39 81  1  0  0  0  0
 40 41  1  0  0  0  0
 40 82  1  0  0  0  0
 40 83  1  0  0  0  0
M  END
> <ConfClashScore>
0 

> <ConfOneFourInteractionScore>
-0.994016 

> <ConfScore>
0.0222338 

> <ConfScorePBest>
0.00484336 

> <ConfTolerance>
2.24761 

$$$$
9548876
  PyMOL2.2          3D                             0

 83 83  0  0  0  0  0  0  0  0999 V2000
   -5.0231   -1.0355   -0.0900 H   0  0  0  1  0  0  0  0  0  0  0  0
   -3.2605    3.5898    0.8696 H   0  0  0  1  0  0  0  0  0  0  0  0
   -3.9578    3.5725   -0.7323 H   0  0  0  1  0  0  0  0  0  0  0  0
   -3.1743    3.1831   -0.1163 C   0  0  0  1  0  0  0  0  0  0  0  0
   -2.2258    3.4531   -0.5316 H   0  0  0  1  0  0  0  0  0  0  0  0
  -10.2416    4.9340   -1.3201 N   0  0  0  1  0  0  0  0  0  0  0  0
  -12.1615    3.2170   -0.1805 C   0  0  0  1  0  0  0  0  0  0  0  0
  -12.9101    2.0420   -0.8055 C   0  0  0  1  0  0  0  0  0  0  0  0
  -12.6606    4.3280   -0.1089 O   0  0  0  1  0  0  0  0  0  0  0  0
  -10.1581    6.0304   -2.2734 C   0  0  0  1  0  0  0  0  0  0  0  0
    1.8454    1.6034    1.0580 O   0  0  0  1  0  0  0  0  0  0  0  0
   -9.3903    6.1599    0.3707 O   0  0  0  1  0  0  0  0  0  0  0  0
  -10.9362    2.9002    0.2651 N   0  0  0  1  0  0  0  0  0  0  0  0
   -3.3534   -9.1079    0.6303 O   0  5  0  1  0  0  0  0  0  0  0  0
   -4.4673    1.0484   -0.2344 N   0  0  0  1  0  0  0  0  0  0  0  0
   -3.7551   -7.5024   -0.9304 O   0  0  0  1  0  0  0  0  0  0  0  0
   -7.8333    2.8226    0.2551 C   0  0  0  1  0  0  0  0  0  0  0  0
   -8.7333    3.2693    1.3969 C   0  0  0  1  0  0  0  0  0  0  0  0
   -2.3255    0.7513    0.2804 C   0  0  0  1  0  0  0  0  0  0  0  0
   -6.5363    2.1230    0.6134 C   0  0  0  1  0  0  0  0  0  0  0  0
   -2.9619   -0.4984    0.3005 C   0  0  0  1  0  0  0  0  0  0  0  0
    2.4435   -0.5219    0.0603 C   0  0  0  1  0  0  0  0  0  0  0  0
  -10.0279    3.9032    0.8554 C   0  0  0  1  0  0  0  0  0  0  0  0
   -5.7322    1.6870   -0.5996 C   0  0  0  1  0  0  0  0  0  0  0  0
   -2.2610   -1.7965    0.6249 C   0  0  0  1  0  0  0  0  0  0  0  0
   -9.8285    5.1065   -0.0613 C   0  0  0  1  0  0  0  0  0  0  0  0
    1.5136    0.6965    0.0082 C   0  0  0  1  0  0  0  0  0  0  0  0
    3.7449   -0.3196   -0.6985 C   0  0  0  1  0  0  0  0  0  0  0  0
   -0.9101    1.0546    0.4540 C   0  0  0  1  0  0  0  0  0  0  0  0
    4.7265   -1.4663   -0.5272 C   0  0  0  1  0  0  0  0  0  0  0  0
    0.0855    0.2671    0.1237 C   0  0  0  1  0  0  0  0  0  0  0  0
   -3.2839    1.6985   -0.0532 C   0  0  0  1  0  0  0  0  0  0  0  0
    6.0245   -1.2687   -1.2949 C   0  0  0  1  0  0  0  0  0  0  0  0
   -4.2905   -0.3005   -0.0213 C   0  0  0  1  0  0  0  0  0  0  0  0
   -1.5786   -2.5024   -0.5035 C   0  0  0  1  0  0  0  0  0  0  0  0
   -1.8743   -3.6913   -0.9190 C   0  0  0  1  0  0  0  0  0  0  0  0
   -2.7003   -4.7643   -0.2538 C   0  0  0  1  0  0  0  0  0  0  0  0
    7.0213   -2.3973   -1.0932 C   0  0  0  1  0  0  0  0  0  0  0  0
   -1.8044   -5.8230    0.3757 C   0  0  0  1  0  0  0  0  0  0  0  0
   -2.5795   -6.9256    1.0852 C   0  0  0  1  0  0  0  0  0  0  0  0
   -3.2876   -7.8391    0.1450 C   0  0  0  1  0  0  0  0  0  0  0  0
  -10.6016    4.0672   -1.6022 H   0  0  0  1  0  0  0  0  0  0  0  0
  -13.5058    1.5601   -0.0586 H   0  0  0  1  0  0  0  0  0  0  0  0
  -12.2057    1.3429   -1.2055 H   0  0  0  1  0  0  0  0  0  0  0  0
  -13.5433    2.3997   -1.5903 H   0  0  0  1  0  0  0  0  0  0  0  0
   -9.1316    6.2839   -2.4373 H   0  0  0  1  0  0  0  0  0  0  0  0
  -10.6775    6.8812   -1.8844 H   0  0  0  1  0  0  0  0  0  0  0  0
  -10.6039    5.7324   -3.1993 H   0  0  0  1  0  0  0  0  0  0  0  0
    2.7885    1.7819    1.0412 H   0  0  0  1  0  0  0  0  0  0  0  0
  -10.6336    1.9706    0.1963 H   0  0  0  1  0  0  0  0  0  0  0  0
   -7.5803    3.6938   -0.3122 H   0  0  0  1  0  0  0  0  0  0  0  0
   -8.4005    2.1512   -0.3552 H   0  0  0  1  0  0  0  0  0  0  0  0
   -8.2127    3.9894    1.9929 H   0  0  0  1  0  0  0  0  0  0  0  0
   -8.9834    2.4209    1.9990 H   0  0  0  1  0  0  0  0  0  0  0  0
   -6.7682    1.2561    1.1961 H   0  0  0  1  0  0  0  0  0  0  0  0
   -5.9380    2.7939    1.1937 H   0  0  0  1  0  0  0  0  0  0  0  0
    1.9298   -1.3591   -0.3644 H   0  0  0  1  0  0  0  0  0  0  0  0
    2.6762   -0.7276    1.0842 H   0  0  0  1  0  0  0  0  0  0  0  0
  -10.5346    4.2850    1.7170 H   0  0  0  1  0  0  0  0  0  0  0  0
   -6.3160    0.9920   -1.1662 H   0  0  0  1  0  0  0  0  0  0  0  0
   -5.5211    2.5481   -1.1986 H   0  0  0  1  0  0  0  0  0  0  0  0
   -2.9921   -2.4654    1.0285 H   0  0  0  1  0  0  0  0  0  0  0  0
   -1.5206   -1.5860    1.3681 H   0  0  0  1  0  0  0  0  0  0  0  0
    1.6456    1.1779   -0.9382 H   0  0  0  1  0  0  0  0  0  0  0  0
    4.2073    0.5784   -0.3455 H   0  0  0  1  0  0  0  0  0  0  0  0
    3.5186   -0.2194   -1.7395 H   0  0  0  1  0  0  0  0  0  0  0  0
   -0.6692    1.9742    0.8758 H   0  0  0  1  0  0  0  0  0  0  0  0
    4.2613   -2.3657   -0.8731 H   0  0  0  1  0  0  0  0  0  0  0  0
    4.9587   -1.5616    0.5130 H   0  0  0  1  0  0  0  0  0  0  0  0
   -0.1345   -0.7303   -0.0725 H   0  0  0  1  0  0  0  0  0  0  0  0
    6.4759   -0.3551   -0.9687 H   0  0  0  1  0  0  0  0  0  0  0  0
    5.7949   -1.2012   -2.3378 H   0  0  0  1  0  0  0  0  0  0  0  0
   -0.8092   -2.0000   -0.9904 H   0  0  0  1  0  0  0  0  0  0  0  0
   -1.4848   -3.9451   -1.8493 H   0  0  0  1  0  0  0  0  0  0  0  0
   -3.3293   -5.2268   -0.9854 H   0  0  0  1  0  0  0  0  0  0  0  0
   -3.3058   -4.3192    0.5079 H   0  0  0  1  0  0  0  0  0  0  0  0
    7.9719   -2.1096   -1.4912 H   0  0  0  1  0  0  0  0  0  0  0  0
    6.6740   -3.2741   -1.5985 H   0  0  0  1  0  0  0  0  0  0  0  0
    7.1201   -2.6030   -0.0478 H   0  0  0  1  0  0  0  0  0  0  0  0
   -1.1643   -5.3459    1.0881 H   0  0  0  1  0  0  0  0  0  0  0  0
   -1.2112   -6.2678   -0.3958 H   0  0  0  1  0  0  0  0  0  0  0  0
   -3.3034   -6.4724    1.7298 H   0  0  0  1  0  0  0  0  0  0  0  0
   -1.8932   -7.5028    1.6689 H   0  0  0  1  0  0  0  0  0  0  0  0
  1 34  1  0  0  0  0
  2  4  1  0  0  0  0
  3  4  1  0  0  0  0
  4  5  1  0  0  0  0
  4 32  1  0  0  0  0
  6 10  1  0  0  0  0
  6 26  1  0  0  0  0
  6 42  1  0  0  0  0
  7  8  1  0  0  0  0
  7  9  2  0  0  0  0
  7 13  1  0  0  0  0
  8 43  1  0  0  0  0
  8 44  1  0  0  0  0
  8 45  1  0  0  0  0
 10 46  1  0  0  0  0
 10 47  1  0  0  0  0
 10 48  1  0  0  0  0
 11 27  1  0  0  0  0
 11 49  1  0  0  0  0
 12 26  2  0  0  0  0
 13 23  1  0  0  0  0
 13 50  1  0  0  0  0
 14 41  1  0  0  0  0
 15 24  1  0  0  0  0
 15 32  4  0  0  0  0
 15 34  4  0  0  0  0
 16 41  2  0  0  0  0
 17 18  1  0  0  0  0
 17 20  1  0  0  0  0
 17 51  1  0  0  0  0
 17 52  1  0  0  0  0
 18 23  1  0  0  0  0
 18 53  1  0  0  0  0
 18 54  1  0  0  0  0
 19 21  4  0  0  0  0
 19 29  1  0  0  0  0
 19 32  4  0  0  0  0
 20 24  1  0  0  0  0
 20 55  1  0  0  0  0
 20 56  1  0  0  0  0
 21 25  1  0  0  0  0
 21 34  4  0  0  0  0
 22 27  1  0  0  0  0
 22 28  1  0  0  0  0
 22 57  1  0  0  0  0
 22 58  1  0  0  0  0
 23 26  1  0  0  0  0
 23 59  1  0  0  0  0
 24 60  1  0  0  0  0
 24 61  1  0  0  0  0
 25 35  1  0  0  0  0
 25 62  1  0  0  0  0
 25 63  1  0  0  0  0
 27 31  1  0  0  0  0
 27 64  1  0  0  0  0
 28 30  1  0  0  0  0
 28 65  1  0  0  0  0
 28 66  1  0  0  0  0
 29 31  2  0  0  0  0
 29 67  1  0  0  0  0
 30 33  1  0  0  0  0
 30 68  1  0  0  0  0
 30 69  1  0  0  0  0
 31 70  1  0  0  0  0
 33 38  1  0  0  0  0
 33 71  1  0  0  0  0
 33 72  1  0  0  0  0
 35 36  2  0  0  0  0
 35 73  1  0  0  0  0
 36 37  1  0  0  0  0
 36 74  1  0  0  0  0
 37 39  1  0  0  0  0
 37 75  1  0  0  0  0
 37 76  1  0  0  0  0
 38 77  1  0  0  0  0
 38 78  1  0  0  0  0
 38 79  1  0  0  0  0
 39 40  1  0  0  0  0
 39 80  1  0  0  0  0
 39 81  1  0  0  0  0
 40 41  1  0  0  0  0
 40 82  1  0  0  0  0
 40 83  1  0  0  0  0
M  END
> <ConfClashScore>
0 

> <ConfOneFourInteractionScore>
-0.985008 

> <ConfScore>
0.0242059 

> <ConfScorePBest>
0.00481488 

> <ConfTolerance>
1.67108 

$$$$
9548876
  PyMOL2.2          3D                             0

 83 83  0  0  0  0  0  0  0  0999 V2000
   -5.0112   -1.0390   -0.1325 H   0  0  0  1  0  0  0  0  0  0  0  0
   -4.0968    3.6475    0.1268 H   0  0  0  1  0  0  0  0  0  0  0  0
   -2.9294    3.4426   -1.1569 H   0  0  0  1  0  0  0  0  0  0  0  0
   -3.1702    3.1872   -0.1461 C   0  0  0  1  0  0  0  0  0  0  0  0
   -2.3947    3.5342    0.5044 H   0  0  0  1  0  0  0  0  0  0  0  0
   -9.6937    3.1906   -6.5431 N   0  0  0  1  0  0  0  0  0  0  0  0
   -9.7102    1.1814   -4.4913 C   0  0  0  1  0  0  0  0  0  0  0  0
  -10.6298    0.1666   -3.8507 C   0  0  0  1  0  0  0  0  0  0  0  0
   -8.9663    0.8717   -5.4210 O   0  0  0  1  0  0  0  0  0  0  0  0
   -9.8100    3.4603   -7.9684 C   0  0  0  1  0  0  0  0  0  0  0  0
    1.8018    1.3251   -0.5459 O   0  0  0  1  0  0  0  0  0  0  0  0
   -7.8241    4.3957   -6.2709 O   0  0  0  1  0  0  0  0  0  0  0  0
   -9.7640    2.4158   -3.9829 N   0  0  0  1  0  0  0  0  0  0  0  0
   -4.0353   -0.8600   -5.0812 O   0  5  0  1  0  0  0  0  0  0  0  0
   -4.4720    1.0522   -0.2260 N   0  0  0  1  0  0  0  0  0  0  0  0
   -3.3735   -2.9559   -5.6275 O   0  0  0  1  0  0  0  0  0  0  0  0
   -7.2995    2.6120   -2.3141 C   0  0  0  1  0  0  0  0  0  0  0  0
   -7.3519    2.9705   -3.7786 C   0  0  0  1  0  0  0  0  0  0  0  0
   -2.3302    0.7607    0.2916 C   0  0  0  1  0  0  0  0  0  0  0  0
   -5.9308    2.1015   -1.9373 C   0  0  0  1  0  0  0  0  0  0  0  0
   -2.9563   -0.4943    0.2797 C   0  0  0  1  0  0  0  0  0  0  0  0
    1.6122    3.6879   -0.0834 C   0  0  0  1  0  0  0  0  0  0  0  0
   -8.7281    3.3853   -4.3068 C   0  0  0  1  0  0  0  0  0  0  0  0
   -5.7630    1.6911   -0.4834 C   0  0  0  1  0  0  0  0  0  0  0  0
   -2.2461   -1.7938    0.5771 C   0  0  0  1  0  0  0  0  0  0  0  0
   -8.6927    3.6773   -5.8040 C   0  0  0  1  0  0  0  0  0  0  0  0
    1.2116    2.2672    0.3324 C   0  0  0  1  0  0  0  0  0  0  0  0
    3.0855    3.8717   -0.2154 C   0  0  0  1  0  0  0  0  0  0  0  0
   -0.9240    1.0112    0.5836 C   0  0  0  1  0  0  0  0  0  0  0  0
    3.5935    5.2568   -0.5668 C   0  0  0  1  0  0  0  0  0  0  0  0
   -0.2771    2.1228    0.3259 C   0  0  0  1  0  0  0  0  0  0  0  0
   -3.2950    1.7075   -0.0243 C   0  0  0  1  0  0  0  0  0  0  0  0
    5.1076    5.3337   -0.6758 C   0  0  0  1  0  0  0  0  0  0  0  0
   -4.2851   -0.2999   -0.0434 C   0  0  0  1  0  0  0  0  0  0  0  0
   -3.1513   -2.9438    0.2684 C   0  0  0  1  0  0  0  0  0  0  0  0
   -3.0069   -3.8272   -0.6874 C   0  0  0  1  0  0  0  0  0  0  0  0
   -1.9100   -3.8086   -1.7181 C   0  0  0  1  0  0  0  0  0  0  0  0
    5.6201    6.7334   -0.9732 C   0  0  0  1  0  0  0  0  0  0  0  0
   -2.4281   -3.6301   -3.1359 C   0  0  0  1  0  0  0  0  0  0  0  0
   -3.0264   -2.2562   -3.3903 C   0  0  0  1  0  0  0  0  0  0  0  0
   -3.4866   -2.0711   -4.7953 C   0  0  0  1  0  0  0  0  0  0  0  0
  -10.3732    2.6327   -6.1103 H   0  0  0  1  0  0  0  0  0  0  0  0
  -11.5638    0.1515   -4.3726 H   0  0  0  1  0  0  0  0  0  0  0  0
  -10.7973    0.4329   -2.8280 H   0  0  0  1  0  0  0  0  0  0  0  0
  -10.1792   -0.8027   -3.8983 H   0  0  0  1  0  0  0  0  0  0  0  0
  -10.7506    3.9298   -8.1675 H   0  0  0  1  0  0  0  0  0  0  0  0
   -9.7489    2.5403   -8.5114 H   0  0  0  1  0  0  0  0  0  0  0  0
   -9.0160    4.1090   -8.2744 H   0  0  0  1  0  0  0  0  0  0  0  0
    1.1745    0.6222   -0.7304 H   0  0  0  1  0  0  0  0  0  0  0  0
  -10.5026    2.6689   -3.3906 H   0  0  0  1  0  0  0  0  0  0  0  0
   -8.0251    1.8518   -2.1129 H   0  0  0  1  0  0  0  0  0  0  0  0
   -7.5222    3.4815   -1.7318 H   0  0  0  1  0  0  0  0  0  0  0  0
   -7.0271    2.1184   -4.3383 H   0  0  0  1  0  0  0  0  0  0  0  0
   -6.6768    3.7843   -3.9430 H   0  0  0  1  0  0  0  0  0  0  0  0
   -5.2217    2.8753   -2.1452 H   0  0  0  1  0  0  0  0  0  0  0  0
   -5.7177    1.2485   -2.5471 H   0  0  0  1  0  0  0  0  0  0  0  0
    1.2497    4.3724    0.6548 H   0  0  0  1  0  0  0  0  0  0  0  0
    1.1572    3.9063   -1.0269 H   0  0  0  1  0  0  0  0  0  0  0  0
   -8.9806    4.3037   -3.8192 H   0  0  0  1  0  0  0  0  0  0  0  0
   -5.8420    2.5639    0.1306 H   0  0  0  1  0  0  0  0  0  0  0  0
   -6.5425    1.0037   -0.2290 H   0  0  0  1  0  0  0  0  0  0  0  0
   -1.9749   -1.8223    1.6118 H   0  0  0  1  0  0  0  0  0  0  0  0
   -1.3645   -1.8633   -0.0252 H   0  0  0  1  0  0  0  0  0  0  0  0
    1.5616    2.1001    1.3296 H   0  0  0  1  0  0  0  0  0  0  0  0
    3.4238    3.2038   -0.9798 H   0  0  0  1  0  0  0  0  0  0  0  0
    3.5270    3.5972    0.7198 H   0  0  0  1  0  0  0  0  0  0  0  0
   -0.3878    0.2428    1.0348 H   0  0  0  1  0  0  0  0  0  0  0  0
    3.2731    5.9386    0.1931 H   0  0  0  1  0  0  0  0  0  0  0  0
    3.1707    5.5449   -1.5065 H   0  0  0  1  0  0  0  0  0  0  0  0
   -0.8414    2.9668    0.1003 H   0  0  0  1  0  0  0  0  0  0  0  0
    5.4246    4.6820   -1.4630 H   0  0  0  1  0  0  0  0  0  0  0  0
    5.5315    5.0070    0.2508 H   0  0  0  1  0  0  0  0  0  0  0  0
   -3.9859   -3.0537    0.8791 H   0  0  0  1  0  0  0  0  0  0  0  0
   -3.7020   -4.5992   -0.7382 H   0  0  0  1  0  0  0  0  0  0  0  0
   -1.3765   -4.7346   -1.6644 H   0  0  0  1  0  0  0  0  0  0  0  0
   -1.2457   -3.0002   -1.4939 H   0  0  0  1  0  0  0  0  0  0  0  0
    5.2784    7.0411   -1.9394 H   0  0  0  1  0  0  0  0  0  0  0  0
    6.6900    6.7322   -0.9573 H   0  0  0  1  0  0  0  0  0  0  0  0
    5.2527    7.4124   -0.2323 H   0  0  0  1  0  0  0  0  0  0  0  0
   -3.1821   -4.3674   -3.3168 H   0  0  0  1  0  0  0  0  0  0  0  0
   -1.6146   -3.7770   -3.8153 H   0  0  0  1  0  0  0  0  0  0  0  0
   -2.2842   -1.5162   -3.1747 H   0  0  0  1  0  0  0  0  0  0  0  0
   -3.8636   -2.1231   -2.7373 H   0  0  0  1  0  0  0  0  0  0  0  0
  1 34  1  0  0  0  0
  2  4  1  0  0  0  0
  3  4  1  0  0  0  0
  4  5  1  0  0  0  0
  4 32  1  0  0  0  0
  6 10  1  0  0  0  0
  6 26  1  0  0  0  0
  6 42  1  0  0  0  0
  7  8  1  0  0  0  0
  7  9  2  0  0  0  0
  7 13  1  0  0  0  0
  8 43  1  0  0  0  0
  8 44  1  0  0  0  0
  8 45  1  0  0  0  0
 10 46  1  0  0  0  0
 10 47  1  0  0  0  0
 10 48  1  0  0  0  0
 11 27  1  0  0  0  0
 11 49  1  0  0  0  0
 12 26  2  0  0  0  0
 13 23  1  0  0  0  0
 13 50  1  0  0  0  0
 14 41  1  0  0  0  0
 15 24  1  0  0  0  0
 15 32  4  0  0  0  0
 15 34  4  0  0  0  0
 16 41  2  0  0  0  0
 17 18  1  0  0  0  0
 17 20  1  0  0  0  0
 17 51  1  0  0  0  0
 17 52  1  0  0  0  0
 18 23  1  0  0  0  0
 18 53  1  0  0  0  0
 18 54  1  0  0  0  0
 19 21  4  0  0  0  0
 19 29  1  0  0  0  0
 19 32  4  0  0  0  0
 20 24  1  0  0  0  0
 20 55  1  0  0  0  0
 20 56  1  0  0  0  0
 21 25  1  0  0  0  0
 21 34  4  0  0  0  0
 22 27  1  0  0  0  0
 22 28  1  0  0  0  0
 22 57  1  0  0  0  0
 22 58  1  0  0  0  0
 23 26  1  0  0  0  0
 23 59  1  0  0  0  0
 24 60  1  0  0  0  0
 24 61  1  0  0  0  0
 25 35  1  0  0  0  0
 25 62  1  0  0  0  0
 25 63  1  0  0  0  0
 27 31  1  0  0  0  0
 27 64  1  0  0  0  0
 28 30  1  0  0  0  0
 28 65  1  0  0  0  0
 28 66  1  0  0  0  0
 29 31  2  0  0  0  0
 29 67  1  0  0  0  0
 30 33  1  0  0  0  0
 30 68  1  0  0  0  0
 30 69  1  0  0  0  0
 31 70  1  0  0  0  0
 33 38  1  0  0  0  0
 33 71  1  0  0  0  0
 33 72  1  0  0  0  0
 35 36  2  0  0  0  0
 35 73  1  0  0  0  0
 36 37  1  0  0  0  0
 36 74  1  0  0  0  0
 37 39  1  0  0  0  0
 37 75  1  0  0  0  0
 37 76  1  0  0  0  0
 38 77  1  0  0  0  0
 38 78  1  0  0  0  0
 38 79  1  0  0  0  0
 39 40  1  0  0  0  0
 39 80  1  0  0  0  0
 39 81  1  0  0  0  0
 40 41  1  0  0  0  0
 40 82  1  0  0  0  0
 40 83  1  0  0  0  0
M  END
> <ConfClashScore>
0 

> <ConfOneFourInteractionScore>
-0.983971 

> <ConfScore>
0.0255723 

> <ConfScorePBest>
0.00478639 

> <ConfTolerance>
1.6868 

$$$$
9548876
  PyMOL2.2          3D                             0

 83 83  0  0  0  0  0  0  0  0999 V2000
   -5.0135   -1.0167   -0.1288 H   0  0  0  1  0  0  0  0  0  0  0  0
   -2.8938    3.4578   -1.1276 H   0  0  0  1  0  0  0  0  0  0  0  0
   -2.4521    3.5633    0.5595 H   0  0  0  1  0  0  0  0  0  0  0  0
   -3.1809    3.1937   -0.1313 C   0  0  0  1  0  0  0  0  0  0  0  0
   -4.1346    3.6248    0.0909 H   0  0  0  1  0  0  0  0  0  0  0  0
   -9.6708    1.7410   -5.1834 N   0  0  0  1  0  0  0  0  0  0  0  0
   -8.8940    6.1450   -3.6780 C   0  0  0  1  0  0  0  0  0  0  0  0
   -9.2935    7.1853   -2.6562 C   0  0  0  1  0  0  0  0  0  0  0  0
   -8.4936    6.4769   -4.7929 O   0  0  0  1  0  0  0  0  0  0  0  0
  -10.5248    0.5670   -5.0818 C   0  0  0  1  0  0  0  0  0  0  0  0
    1.6674    3.0337   -0.5987 O   0  0  0  1  0  0  0  0  0  0  0  0
  -10.5394    2.5785   -3.2952 O   0  0  0  1  0  0  0  0  0  0  0  0
   -8.9887    4.8596   -3.3342 N   0  0  0  1  0  0  0  0  0  0  0  0
    4.2537   -4.6039    1.2056 O   0  5  0  1  0  0  0  0  0  0  0  0
   -4.4545    1.0700   -0.2049 N   0  0  0  1  0  0  0  0  0  0  0  0
    5.4289   -2.8125    0.4412 O   0  0  0  1  0  0  0  0  0  0  0  0
   -7.2527    2.6527   -2.3440 C   0  0  0  1  0  0  0  0  0  0  0  0
   -7.3014    3.1923   -3.7519 C   0  0  0  1  0  0  0  0  0  0  0  0
   -2.3073    0.7502    0.2721 C   0  0  0  1  0  0  0  0  0  0  0  0
   -5.9230    2.0371   -1.9852 C   0  0  0  1  0  0  0  0  0  0  0  0
   -2.9463   -0.4981    0.2551 C   0  0  0  1  0  0  0  0  0  0  0  0
    1.7910    2.9619    1.7920 C   0  0  0  1  0  0  0  0  0  0  0  0
   -8.6617    3.7387   -4.2028 C   0  0  0  1  0  0  0  0  0  0  0  0
   -5.7468    1.6735   -0.5316 C   0  0  0  1  0  0  0  0  0  0  0  0
   -2.3060   -1.8188    0.6119 C   0  0  0  1  0  0  0  0  0  0  0  0
   -9.7289    2.6483   -4.2044 C   0  0  0  1  0  0  0  0  0  0  0  0
    1.2298    2.2866    0.5444 C   0  0  0  1  0  0  0  0  0  0  0  0
    3.2724    3.2225    1.8387 C   0  0  0  1  0  0  0  0  0  0  0  0
   -0.8921    0.9831    0.5434 C   0  0  0  1  0  0  0  0  0  0  0  0
    4.1469    1.9940    1.8822 C   0  0  0  1  0  0  0  0  0  0  0  0
   -0.2575    2.1306    0.5749 C   0  0  0  1  0  0  0  0  0  0  0  0
   -3.2675    1.7107   -0.0152 C   0  0  0  1  0  0  0  0  0  0  0  0
    5.6441    2.2557    1.8676 C   0  0  0  1  0  0  0  0  0  0  0  0
   -4.2784   -0.2861   -0.0428 C   0  0  0  1  0  0  0  0  0  0  0  0
   -1.5947   -2.4351   -0.5506 C   0  0  0  1  0  0  0  0  0  0  0  0
   -0.3008   -2.4918   -0.7441 C   0  0  0  1  0  0  0  0  0  0  0  0
    0.7396   -2.2295    0.3116 C   0  0  0  1  0  0  0  0  0  0  0  0
    6.4199    0.9497    1.9215 C   0  0  0  1  0  0  0  0  0  0  0  0
    2.1587   -2.6288   -0.0588 C   0  0  0  1  0  0  0  0  0  0  0  0
    3.1352   -2.5287    1.1017 C   0  0  0  1  0  0  0  0  0  0  0  0
    4.3938   -3.2927    0.8730 C   0  0  0  1  0  0  0  0  0  0  0  0
   -9.0701    1.8625   -5.9482 H   0  0  0  1  0  0  0  0  0  0  0  0
   -9.6856    6.7000   -1.7869 H   0  0  0  1  0  0  0  0  0  0  0  0
  -10.0412    7.8266   -3.0741 H   0  0  0  1  0  0  0  0  0  0  0  0
   -8.4366    7.7656   -2.3844 H   0  0  0  1  0  0  0  0  0  0  0  0
  -10.9289    0.5038   -4.0931 H   0  0  0  1  0  0  0  0  0  0  0  0
   -9.9495   -0.3112   -5.2886 H   0  0  0  1  0  0  0  0  0  0  0  0
  -11.3238    0.6453   -5.7892 H   0  0  0  1  0  0  0  0  0  0  0  0
    1.7744    3.9565   -0.3566 H   0  0  0  1  0  0  0  0  0  0  0  0
   -9.3021    4.6547   -2.4286 H   0  0  0  1  0  0  0  0  0  0  0  0
   -8.0115    1.9053   -2.2407 H   0  0  0  1  0  0  0  0  0  0  0  0
   -7.4485    3.4566   -1.6656 H   0  0  0  1  0  0  0  0  0  0  0  0
   -7.0270    2.4010   -4.4178 H   0  0  0  1  0  0  0  0  0  0  0  0
   -6.5869    3.9853   -3.8258 H   0  0  0  1  0  0  0  0  0  0  0  0
   -5.1554    2.7357   -2.2455 H   0  0  0  1  0  0  0  0  0  0  0  0
   -5.8056    1.1452   -2.5645 H   0  0  0  1  0  0  0  0  0  0  0  0
    1.5494    2.3397    2.6283 H   0  0  0  1  0  0  0  0  0  0  0  0
    1.2970    3.9055    1.8943 H   0  0  0  1  0  0  0  0  0  0  0  0
   -8.5552    4.0975   -5.2052 H   0  0  0  1  0  0  0  0  0  0  0  0
   -5.8549    2.5649    0.0503 H   0  0  0  1  0  0  0  0  0  0  0  0
   -6.5158    0.9784   -0.2664 H   0  0  0  1  0  0  0  0  0  0  0  0
   -3.0680   -2.4919    0.9455 H   0  0  0  1  0  0  0  0  0  0  0  0
   -1.6013   -1.6578    1.4007 H   0  0  0  1  0  0  0  0  0  0  0  0
    1.6555    1.3063    0.4930 H   0  0  0  1  0  0  0  0  0  0  0  0
    3.4773    3.8040    2.7133 H   0  0  0  1  0  0  0  0  0  0  0  0
    3.5360    3.7839    0.9668 H   0  0  0  1  0  0  0  0  0  0  0  0
   -0.3178    0.1374    0.7348 H   0  0  0  1  0  0  0  0  0  0  0  0
    3.9096    1.3903    1.0312 H   0  0  0  1  0  0  0  0  0  0  0  0
    3.9151    1.4560    2.7776 H   0  0  0  1  0  0  0  0  0  0  0  0
   -0.8313    2.9966    0.6248 H   0  0  0  1  0  0  0  0  0  0  0  0
    5.9041    2.8535    2.7161 H   0  0  0  1  0  0  0  0  0  0  0  0
    5.9001    2.7791    0.9701 H   0  0  0  1  0  0  0  0  0  0  0  0
   -2.1926   -2.8653   -1.2849 H   0  0  0  1  0  0  0  0  0  0  0  0
    0.0328   -2.7363   -1.6984 H   0  0  0  1  0  0  0  0  0  0  0  0
    0.4625   -2.7733    1.1905 H   0  0  0  1  0  0  0  0  0  0  0  0
    0.7367   -1.1809    0.5246 H   0  0  0  1  0  0  0  0  0  0  0  0
    6.1548    0.4132    2.8085 H   0  0  0  1  0  0  0  0  0  0  0  0
    7.4693    1.1587    1.9316 H   0  0  0  1  0  0  0  0  0  0  0  0
    6.1818    0.3580    1.0624 H   0  0  0  1  0  0  0  0  0  0  0  0
    2.4980   -1.9860   -0.8441 H   0  0  0  1  0  0  0  0  0  0  0  0
    2.1468   -3.6409   -0.4058 H   0  0  0  1  0  0  0  0  0  0  0  0
    2.6598   -2.9108    1.9808 H   0  0  0  1  0  0  0  0  0  0  0  0
    3.3842   -1.4986    1.2494 H   0  0  0  1  0  0  0  0  0  0  0  0
  1 34  1  0  0  0  0
  2  4  1  0  0  0  0
  3  4  1  0  0  0  0
  4  5  1  0  0  0  0
  4 32  1  0  0  0  0
  6 10  1  0  0  0  0
  6 26  1  0  0  0  0
  6 42  1  0  0  0  0
  7  8  1  0  0  0  0
  7  9  2  0  0  0  0
  7 13  1  0  0  0  0
  8 43  1  0  0  0  0
  8 44  1  0  0  0  0
  8 45  1  0  0  0  0
 10 46  1  0  0  0  0
 10 47  1  0  0  0  0
 10 48  1  0  0  0  0
 11 27  1  0  0  0  0
 11 49  1  0  0  0  0
 12 26  2  0  0  0  0
 13 23  1  0  0  0  0
 13 50  1  0  0  0  0
 14 41  1  0  0  0  0
 15 24  1  0  0  0  0
 15 32  4  0  0  0  0
 15 34  4  0  0  0  0
 16 41  2  0  0  0  0
 17 18  1  0  0  0  0
 17 20  1  0  0  0  0
 17 51  1  0  0  0  0
 17 52  1  0  0  0  0
 18 23  1  0  0  0  0
 18 53  1  0  0  0  0
 18 54  1  0  0  0  0
 19 21  4  0  0  0  0
 19 29  1  0  0  0  0
 19 32  4  0  0  0  0
 20 24  1  0  0  0  0
 20 55  1  0  0  0  0
 20 56  1  0  0  0  0
 21 25  1  0  0  0  0
 21 34  4  0  0  0  0
 22 27  1  0  0  0  0
 22 28  1  0  0  0  0
 22 57  1  0  0  0  0
 22 58  1  0  0  0  0
 23 26  1  0  0  0  0
 23 59  1  0  0  0  0
 24 60  1  0  0  0  0
 24 61  1  0  0  0  0
 25 35  1  0  0  0  0
 25 62  1  0  0  0  0
 25 63  1  0  0  0  0
 27 31  1  0  0  0  0
 27 64  1  0  0  0  0
 28 30  1  0  0  0  0
 28 65  1  0  0  0  0
 28 66  1  0  0  0  0
 29 31  2  0  0  0  0
 29 67  1  0  0  0  0
 30 33  1  0  0  0  0
 30 68  1  0  0  0  0
 30 69  1  0  0  0  0
 31 70  1  0  0  0  0
 33 38  1  0  0  0  0
 33 71  1  0  0  0  0
 33 72  1  0  0  0  0
 35 36  2  0  0  0  0
 35 73  1  0  0  0  0
 36 37  1  0  0  0  0
 36 74  1  0  0  0  0
 37 39  1  0  0  0  0
 37 75  1  0  0  0  0
 37 76  1  0  0  0  0
 38 77  1  0  0  0  0
 38 78  1  0  0  0  0
 38 79  1  0  0  0  0
 39 40  1  0  0  0  0
 39 80  1  0  0  0  0
 39 81  1  0  0  0  0
 40 41  1  0  0  0  0
 40 82  1  0  0  0  0
 40 83  1  0  0  0  0
M  END
> <ConfClashScore>
0 

> <ConfOneFourInteractionScore>
-0.992157 

> <ConfScore>
0.0272834 

> <ConfScorePBest>
0.00475791 

> <ConfTolerance>
1.75275 

$$$$
9548876
  PyMOL2.2          3D                             0

 83 83  0  0  0  0  0  0  0  0999 V2000
   -5.0232   -1.0303   -0.1098 H   0  0  0  1  0  0  0  0  0  0  0  0
   -3.8660    3.6404    0.5525 H   0  0  0  1  0  0  0  0  0  0  0  0
   -3.4606    3.4682   -1.1382 H   0  0  0  1  0  0  0  0  0  0  0  0
   -3.1941    3.1815   -0.1424 C   0  0  0  1  0  0  0  0  0  0  0  0
   -2.1940    3.5001    0.0655 H   0  0  0  1  0  0  0  0  0  0  0  0
   -9.5276    4.9212   -2.6795 N   0  0  0  1  0  0  0  0  0  0  0  0
   -8.7983    3.5840   -6.7731 C   0  0  0  1  0  0  0  0  0  0  0  0
   -8.8016    4.1502   -8.1798 C   0  0  0  1  0  0  0  0  0  0  0  0
   -9.3764    2.5288   -6.5163 O   0  0  0  1  0  0  0  0  0  0  0  0
   -9.9320    6.0073   -1.7994 C   0  0  0  1  0  0  0  0  0  0  0  0
    2.4689    0.0128    0.3657 O   0  0  0  1  0  0  0  0  0  0  0  0
   -7.9584    6.1652   -3.7173 O   0  0  0  1  0  0  0  0  0  0  0  0
   -8.1467    4.2677   -5.8191 N   0  0  0  1  0  0  0  0  0  0  0  0
    4.7546   -5.2048    1.1056 O   0  5  0  1  0  0  0  0  0  0  0  0
   -4.4655    1.0561   -0.2027 N   0  0  0  1  0  0  0  0  0  0  0  0
    3.6915   -5.2201    3.1228 O   0  0  0  1  0  0  0  0  0  0  0  0
   -6.9580    2.8404   -2.5049 C   0  0  0  1  0  0  0  0  0  0  0  0
   -6.8946    3.2237   -3.9709 C   0  0  0  1  0  0  0  0  0  0  0  0
   -2.3206    0.7428    0.2888 C   0  0  0  1  0  0  0  0  0  0  0  0
   -5.6832    2.1952   -1.9965 C   0  0  0  1  0  0  0  0  0  0  0  0
   -2.9585   -0.5062    0.2802 C   0  0  0  1  0  0  0  0  0  0  0  0
    1.5792    1.8482    1.6135 C   0  0  0  1  0  0  0  0  0  0  0  0
   -8.2012    3.8875   -4.4155 C   0  0  0  1  0  0  0  0  0  0  0  0
   -5.7066    1.7583   -0.5416 C   0  0  0  1  0  0  0  0  0  0  0  0
   -2.2085   -1.7843    0.5724 C   0  0  0  1  0  0  0  0  0  0  0  0
   -8.5672    5.1159   -3.5878 C   0  0  0  1  0  0  0  0  0  0  0  0
    1.3963    0.3848    1.2418 C   0  0  0  1  0  0  0  0  0  0  0  0
    1.4974    2.7324    0.3787 C   0  0  0  1  0  0  0  0  0  0  0  0
   -0.9070    0.9794    0.5654 C   0  0  0  1  0  0  0  0  0  0  0  0
    2.8818    3.1606   -0.0685 C   0  0  0  1  0  0  0  0  0  0  0  0
    0.0594    0.0899    0.6447 C   0  0  0  1  0  0  0  0  0  0  0  0
   -3.2800    1.6997   -0.0127 C   0  0  0  1  0  0  0  0  0  0  0  0
    2.8627    4.1684   -1.2051 C   0  0  0  1  0  0  0  0  0  0  0  0
   -4.2891   -0.2983   -0.0268 C   0  0  0  1  0  0  0  0  0  0  0  0
   -1.6690   -1.7433    1.9669 C   0  0  0  1  0  0  0  0  0  0  0  0
   -0.5820   -2.3546    2.4226 C   0  0  0  1  0  0  0  0  0  0  0  0
    0.4274   -2.9415    1.4877 C   0  0  0  1  0  0  0  0  0  0  0  0
    2.6279    5.5964   -0.7403 C   0  0  0  1  0  0  0  0  0  0  0  0
    1.5804   -3.6274    2.2086 C   0  0  0  1  0  0  0  0  0  0  0  0
    2.7109   -4.0406    1.2804 C   0  0  0  1  0  0  0  0  0  0  0  0
    3.7594   -4.8506    1.9621 C   0  0  0  1  0  0  0  0  0  0  0  0
   -9.9605    4.0451   -2.6059 H   0  0  0  1  0  0  0  0  0  0  0  0
   -9.6101    4.8432   -8.2839 H   0  0  0  1  0  0  0  0  0  0  0  0
   -8.9218    3.3538   -8.8842 H   0  0  0  1  0  0  0  0  0  0  0  0
   -7.8752    4.6530   -8.3637 H   0  0  0  1  0  0  0  0  0  0  0  0
  -10.4817    6.7348   -2.3592 H   0  0  0  1  0  0  0  0  0  0  0  0
   -9.0627    6.4656   -1.3762 H   0  0  0  1  0  0  0  0  0  0  0  0
  -10.5489    5.6200   -1.0156 H   0  0  0  1  0  0  0  0  0  0  0  0
    3.0684    0.7551    0.2599 H   0  0  0  1  0  0  0  0  0  0  0  0
   -7.6158    5.0501   -6.0769 H   0  0  0  1  0  0  0  0  0  0  0  0
   -7.7648    2.1507   -2.3692 H   0  0  0  1  0  0  0  0  0  0  0  0
   -7.1433    3.7242   -1.9309 H   0  0  0  1  0  0  0  0  0  0  0  0
   -6.7312    2.3435   -4.5569 H   0  0  0  1  0  0  0  0  0  0  0  0
   -6.0852    3.9075   -4.1200 H   0  0  0  1  0  0  0  0  0  0  0  0
   -4.8868    2.8998   -2.1162 H   0  0  0  1  0  0  0  0  0  0  0  0
   -5.4889    1.3312   -2.5970 H   0  0  0  1  0  0  0  0  0  0  0  0
    2.5365    1.9763    2.0740 H   0  0  0  1  0  0  0  0  0  0  0  0
    0.8109    2.1342    2.3013 H   0  0  0  1  0  0  0  0  0  0  0  0
   -8.9847    3.1696   -4.2902 H   0  0  0  1  0  0  0  0  0  0  0  0
   -5.8068    2.6203    0.0843 H   0  0  0  1  0  0  0  0  0  0  0  0
   -6.5376    1.1032   -0.3831 H   0  0  0  1  0  0  0  0  0  0  0  0
   -1.3988   -1.8878   -0.1194 H   0  0  0  1  0  0  0  0  0  0  0  0
   -2.8725   -2.6173    0.4723 H   0  0  0  1  0  0  0  0  0  0  0  0
    1.4798   -0.1870    2.1424 H   0  0  0  1  0  0  0  0  0  0  0  0
    0.9180    3.6023    0.6078 H   0  0  0  1  0  0  0  0  0  0  0  0
    1.0260    2.1875   -0.4124 H   0  0  0  1  0  0  0  0  0  0  0  0
   -0.6304    1.9703    0.7182 H   0  0  0  1  0  0  0  0  0  0  0  0
    3.4168    2.2928   -0.3936 H   0  0  0  1  0  0  0  0  0  0  0  0
    3.3872    3.5999    0.7660 H   0  0  0  1  0  0  0  0  0  0  0  0
   -0.1164   -0.8655    0.2734 H   0  0  0  1  0  0  0  0  0  0  0  0
    2.0805    3.8996   -1.8838 H   0  0  0  1  0  0  0  0  0  0  0  0
    3.8046    4.1269   -1.7112 H   0  0  0  1  0  0  0  0  0  0  0  0
   -2.2033   -1.1741    2.6541 H   0  0  0  1  0  0  0  0  0  0  0  0
   -0.4295   -2.4267    3.4488 H   0  0  0  1  0  0  0  0  0  0  0  0
    0.8251   -2.1563    0.8792 H   0  0  0  1  0  0  0  0  0  0  0  0
   -0.0624   -3.6617    0.8662 H   0  0  0  1  0  0  0  0  0  0  0  0
    3.4432    5.9095   -0.1222 H   0  0  0  1  0  0  0  0  0  0  0  0
    1.7174    5.6438   -0.1803 H   0  0  0  1  0  0  0  0  0  0  0  0
    2.5577    6.2412   -1.5913 H   0  0  0  1  0  0  0  0  0  0  0  0
    1.2036   -4.5029    2.6949 H   0  0  0  1  0  0  0  0  0  0  0  0
    1.9721   -2.9527    2.9409 H   0  0  0  1  0  0  0  0  0  0  0  0
    3.1668   -3.1572    0.8847 H   0  0  0  1  0  0  0  0  0  0  0  0
    2.3000   -4.6197    0.4800 H   0  0  0  1  0  0  0  0  0  0  0  0
  1 34  1  0  0  0  0
  2  4  1  0  0  0  0
  3  4  1  0  0  0  0
  4  5  1  0  0  0  0
  4 32  1  0  0  0  0
  6 10  1  0  0  0  0
  6 26  1  0  0  0  0
  6 42  1  0  0  0  0
  7  8  1  0  0  0  0
  7  9  2  0  0  0  0
  7 13  1  0  0  0  0
  8 43  1  0  0  0  0
  8 44  1  0  0  0  0
  8 45  1  0  0  0  0
 10 46  1  0  0  0  0
 10 47  1  0  0  0  0
 10 48  1  0  0  0  0
 11 27  1  0  0  0  0
 11 49  1  0  0  0  0
 12 26  2  0  0  0  0
 13 23  1  0  0  0  0
 13 50  1  0  0  0  0
 14 41  1  0  0  0  0
 15 24  1  0  0  0  0
 15 32  4  0  0  0  0
 15 34  4  0  0  0  0
 16 41  2  0  0  0  0
 17 18  1  0  0  0  0
 17 20  1  0  0  0  0
 17 51  1  0  0  0  0
 17 52  1  0  0  0  0
 18 23  1  0  0  0  0
 18 53  1  0  0  0  0
 18 54  1  0  0  0  0
 19 21  4  0  0  0  0
 19 29  1  0  0  0  0
 19 32  4  0  0  0  0
 20 24  1  0  0  0  0
 20 55  1  0  0  0  0
 20 56  1  0  0  0  0
 21 25  1  0  0  0  0
 21 34  4  0  0  0  0
 22 27  1  0  0  0  0
 22 28  1  0  0  0  0
 22 57  1  0  0  0  0
 22 58  1  0  0  0  0
 23 26  1  0  0  0  0
 23 59  1  0  0  0  0
 24 60  1  0  0  0  0
 24 61  1  0  0  0  0
 25 35  1  0  0  0  0
 25 62  1  0  0  0  0
 25 63  1  0  0  0  0
 27 31  1  0  0  0  0
 27 64  1  0  0  0  0
 28 30  1  0  0  0  0
 28 65  1  0  0  0  0
 28 66  1  0  0  0  0
 29 31  2  0  0  0  0
 29 67  1  0  0  0  0
 30 33  1  0  0  0  0
 30 68  1  0  0  0  0
 30 69  1  0  0  0  0
 31 70  1  0  0  0  0
 33 38  1  0  0  0  0
 33 71  1  0  0  0  0
 33 72  1  0  0  0  0
 35 36  2  0  0  0  0
 35 73  1  0  0  0  0
 36 37  1  0  0  0  0
 36 74  1  0  0  0  0
 37 39  1  0  0  0  0
 37 75  1  0  0  0  0
 37 76  1  0  0  0  0
 38 77  1  0  0  0  0
 38 78  1  0  0  0  0
 38 79  1  0  0  0  0
 39 40  1  0  0  0  0
 39 80  1  0  0  0  0
 39 81  1  0  0  0  0
 40 41  1  0  0  0  0
 40 82  1  0  0  0  0
 40 83  1  0  0  0  0
M  END
> <ConfClashScore>
0.000164005 

> <ConfOneFourInteractionScore>
-0.992269 

> <ConfScore>
0.027926 

> <ConfScorePBest>
0.00472943 

> <ConfTolerance>
1.70323 

$$$$
9548876
  PyMOL2.2          3D                             0

 83 83  0  0  0  0  0  0  0  0999 V2000
   -5.0284   -1.0148   -0.0296 H   0  0  0  1  0  0  0  0  0  0  0  0
   -2.7559    3.4937   -1.0440 H   0  0  0  1  0  0  0  0  0  0  0  0
   -2.5833    3.5456    0.6938 H   0  0  0  1  0  0  0  0  0  0  0  0
   -3.1891    3.1908   -0.1137 C   0  0  0  1  0  0  0  0  0  0  0  0
   -4.1736    3.6012   -0.0286 H   0  0  0  1  0  0  0  0  0  0  0  0
  -11.3058    4.3195    2.1719 N   0  0  0  1  0  0  0  0  0  0  0  0
   -9.7282    6.2085   -1.2964 C   0  0  0  1  0  0  0  0  0  0  0  0
   -9.1589    7.3670   -2.0920 C   0  0  0  1  0  0  0  0  0  0  0  0
  -10.7639    5.6582   -1.6324 O   0  0  0  1  0  0  0  0  0  0  0  0
  -12.1350    4.5766    3.3398 C   0  0  0  1  0  0  0  0  0  0  0  0
    2.0227    2.4973    0.1435 O   0  0  0  1  0  0  0  0  0  0  0  0
  -10.1654    6.2429    2.3179 O   0  0  0  1  0  0  0  0  0  0  0  0
   -9.0223    5.8403   -0.2165 N   0  0  0  1  0  0  0  0  0  0  0  0
   -0.4298   -4.8614    1.2245 O   0  5  0  1  0  0  0  0  0  0  0  0
   -4.4610    1.0648   -0.1908 N   0  0  0  1  0  0  0  0  0  0  0  0
   -1.2993   -3.3641    2.6998 O   0  0  0  1  0  0  0  0  0  0  0  0
   -7.5451    3.2548   -0.0322 C   0  0  0  1  0  0  0  0  0  0  0  0
   -8.2711    3.9342    1.1188 C   0  0  0  1  0  0  0  0  0  0  0  0
   -2.3009    0.7467    0.2249 C   0  0  0  1  0  0  0  0  0  0  0  0
   -6.3916    2.4094    0.4825 C   0  0  0  1  0  0  0  0  0  0  0  0
   -2.9468   -0.4974    0.2690 C   0  0  0  1  0  0  0  0  0  0  0  0
    1.1914    3.5698    2.1482 C   0  0  0  1  0  0  0  0  0  0  0  0
   -9.4738    4.7290    0.6076 C   0  0  0  1  0  0  0  0  0  0  0  0
   -5.6938    1.6960   -0.6630 C   0  0  0  1  0  0  0  0  0  0  0  0
   -2.2927   -1.8337    0.5514 C   0  0  0  1  0  0  0  0  0  0  0  0
  -10.3687    5.1777    1.7590 C   0  0  0  1  0  0  0  0  0  0  0  0
    1.0919    2.3830    1.1964 C   0  0  0  1  0  0  0  0  0  0  0  0
    2.6193    3.9095    2.5401 C   0  0  0  1  0  0  0  0  0  0  0  0
   -0.8964    0.9974    0.5336 C   0  0  0  1  0  0  0  0  0  0  0  0
    2.7470    5.2289    3.2218 C   0  0  0  1  0  0  0  0  0  0  0  0
   -0.3134    2.1518    0.7391 C   0  0  0  1  0  0  0  0  0  0  0  0
   -3.2650    1.7037   -0.0611 C   0  0  0  1  0  0  0  0  0  0  0  0
    4.1353    5.6739    3.6397 C   0  0  0  1  0  0  0  0  0  0  0  0
   -4.2869   -0.2865    0.0087 C   0  0  0  1  0  0  0  0  0  0  0  0
   -3.0557   -2.9221   -0.1346 C   0  0  0  1  0  0  0  0  0  0  0  0
   -3.8305   -3.8167    0.4260 C   0  0  0  1  0  0  0  0  0  0  0  0
   -4.3587   -3.7372    1.8333 C   0  0  0  1  0  0  0  0  0  0  0  0
    4.7461    4.8025    4.7252 C   0  0  0  1  0  0  0  0  0  0  0  0
   -3.8353   -4.8479    2.7294 C   0  0  0  1  0  0  0  0  0  0  0  0
   -2.5107   -5.3812    2.2084 C   0  0  0  1  0  0  0  0  0  0  0  0
   -1.3780   -4.4200    2.0938 C   0  0  0  1  0  0  0  0  0  0  0  0
  -11.4394    3.4880    1.6707 H   0  0  0  1  0  0  0  0  0  0  0  0
   -9.4423    7.2685   -3.1191 H   0  0  0  1  0  0  0  0  0  0  0  0
   -8.0917    7.3622   -2.0147 H   0  0  0  1  0  0  0  0  0  0  0  0
   -9.5409    8.2879   -1.7036 H   0  0  0  1  0  0  0  0  0  0  0  0
  -11.6305    4.2333    4.2187 H   0  0  0  1  0  0  0  0  0  0  0  0
  -13.0654    4.0582    3.2374 H   0  0  0  1  0  0  0  0  0  0  0  0
  -12.3189    5.6275    3.4220 H   0  0  0  1  0  0  0  0  0  0  0  0
    1.6900    3.1137   -0.5129 H   0  0  0  1  0  0  0  0  0  0  0  0
   -8.2010    6.3208    0.0180 H   0  0  0  1  0  0  0  0  0  0  0  0
   -7.1635    4.0021   -0.6961 H   0  0  0  1  0  0  0  0  0  0  0  0
   -8.2329    2.6267   -0.5588 H   0  0  0  1  0  0  0  0  0  0  0  0
   -7.5962    4.5996    1.6154 H   0  0  0  1  0  0  0  0  0  0  0  0
   -8.6102    3.1894    1.8082 H   0  0  0  1  0  0  0  0  0  0  0  0
   -6.7693    1.6822    1.1706 H   0  0  0  1  0  0  0  0  0  0  0  0
   -5.6883    3.0423    0.9821 H   0  0  0  1  0  0  0  0  0  0  0  0
    0.6415    3.3391    3.0366 H   0  0  0  1  0  0  0  0  0  0  0  0
    0.7580    4.4242    1.6716 H   0  0  0  1  0  0  0  0  0  0  0  0
  -10.0516    4.0707   -0.0070 H   0  0  0  1  0  0  0  0  0  0  0  0
   -6.3448    0.9457   -1.0605 H   0  0  0  1  0  0  0  0  0  0  0  0
   -5.4567    2.4051   -1.4284 H   0  0  0  1  0  0  0  0  0  0  0  0
   -2.2892   -2.0122    1.6064 H   0  0  0  1  0  0  0  0  0  0  0  0
   -1.2864   -1.8211    0.1879 H   0  0  0  1  0  0  0  0  0  0  0  0
    1.3612    1.5206    1.7695 H   0  0  0  1  0  0  0  0  0  0  0  0
    3.2194    3.9258    1.6543 H   0  0  0  1  0  0  0  0  0  0  0  0
    2.9795    3.1495    3.2016 H   0  0  0  1  0  0  0  0  0  0  0  0
   -0.2854    0.1584    0.5982 H   0  0  0  1  0  0  0  0  0  0  0  0
    2.1438    5.1921    4.1048 H   0  0  0  1  0  0  0  0  0  0  0  0
    2.3603    5.9716    2.5557 H   0  0  0  1  0  0  0  0  0  0  0  0
   -0.8899    2.9998    0.5655 H   0  0  0  1  0  0  0  0  0  0  0  0
    4.0742    6.6778    4.0050 H   0  0  0  1  0  0  0  0  0  0  0  0
    4.7738    5.6442    2.7816 H   0  0  0  1  0  0  0  0  0  0  0  0
   -2.9605   -2.9741   -1.1689 H   0  0  0  1  0  0  0  0  0  0  0  0
   -4.1011   -4.6437   -0.1436 H   0  0  0  1  0  0  0  0  0  0  0  0
   -5.4263   -3.8008    1.8005 H   0  0  0  1  0  0  0  0  0  0  0  0
   -4.0697   -2.7963    2.2530 H   0  0  0  1  0  0  0  0  0  0  0  0
    5.0290    3.8585    4.3083 H   0  0  0  1  0  0  0  0  0  0  0  0
    4.0286    4.6477    5.5037 H   0  0  0  1  0  0  0  0  0  0  0  0
    5.6106    5.2879    5.1275 H   0  0  0  1  0  0  0  0  0  0  0  0
   -4.5491   -5.6446    2.7540 H   0  0  0  1  0  0  0  0  0  0  0  0
   -3.6944   -4.4639    3.7181 H   0  0  0  1  0  0  0  0  0  0  0  0
   -2.6890   -5.7837    1.2331 H   0  0  0  1  0  0  0  0  0  0  0  0
   -2.2000   -6.1652    2.8670 H   0  0  0  1  0  0  0  0  0  0  0  0
  1 34  1  0  0  0  0
  2  4  1  0  0  0  0
  3  4  1  0  0  0  0
  4  5  1  0  0  0  0
  4 32  1  0  0  0  0
  6 10  1  0  0  0  0
  6 26  1  0  0  0  0
  6 42  1  0  0  0  0
  7  8  1  0  0  0  0
  7  9  2  0  0  0  0
  7 13  1  0  0  0  0
  8 43  1  0  0  0  0
  8 44  1  0  0  0  0
  8 45  1  0  0  0  0
 10 46  1  0  0  0  0
 10 47  1  0  0  0  0
 10 48  1  0  0  0  0
 11 27  1  0  0  0  0
 11 49  1  0  0  0  0
 12 26  2  0  0  0  0
 13 23  1  0  0  0  0
 13 50  1  0  0  0  0
 14 41  1  0  0  0  0
 15 24  1  0  0  0  0
 15 32  4  0  0  0  0
 15 34  4  0  0  0  0
 16 41  2  0  0  0  0
 17 18  1  0  0  0  0
 17 20  1  0  0  0  0
 17 51  1  0  0  0  0
 17 52  1  0  0  0  0
 18 23  1  0  0  0  0
 18 53  1  0  0  0  0
 18 54  1  0  0  0  0
 19 21  4  0  0  0  0
 19 29  1  0  0  0  0
 19 32  4  0  0  0  0
 20 24  1  0  0  0  0
 20 55  1  0  0  0  0
 20 56  1  0  0  0  0
 21 25  1  0  0  0  0
 21 34  4  0  0  0  0
 22 27  1  0  0  0  0
 22 28  1  0  0  0  0
 22 57  1  0  0  0  0
 22 58  1  0  0  0  0
 23 26  1  0  0  0  0
 23 59  1  0  0  0  0
 24 60  1  0  0  0  0
 24 61  1  0  0  0  0
 25 35  1  0  0  0  0
 25 62  1  0  0  0  0
 25 63  1  0  0  0  0
 27 31  1  0  0  0  0
 27 64  1  0  0  0  0
 28 30  1  0  0  0  0
 28 65  1  0  0  0  0
 28 66  1  0  0  0  0
 29 31  2  0  0  0  0
 29 67  1  0  0  0  0
 30 33  1  0  0  0  0
 30 68  1  0  0  0  0
 30 69  1  0  0  0  0
 31 70  1  0  0  0  0
 33 38  1  0  0  0  0
 33 71  1  0  0  0  0
 33 72  1  0  0  0  0
 35 36  2  0  0  0  0
 35 73  1  0  0  0  0
 36 37  1  0  0  0  0
 36 74  1  0  0  0  0
 37 39  1  0  0  0  0
 37 75  1  0  0  0  0
 37 76  1  0  0  0  0
 38 77  1  0  0  0  0
 38 78  1  0  0  0  0
 38 79  1  0  0  0  0
 39 40  1  0  0  0  0
 39 80  1  0  0  0  0
 39 81  1  0  0  0  0
 40 41  1  0  0  0  0
 40 82  1  0  0  0  0
 40 83  1  0  0  0  0
M  END
> <ConfClashScore>
0 

> <ConfOneFourInteractionScore>
-0.993161 

> <ConfScore>
0.0285606 

> <ConfScorePBest>
0.00470095 

> <ConfTolerance>
1.69788 

$$$$
9548876
  PyMOL2.2          3D                             0

 83 83  0  0  0  0  0  0  0  0999 V2000
   -5.0020   -1.0089   -0.1456 H   0  0  0  1  0  0  0  0  0  0  0  0
   -2.6329    3.6083    0.6621 H   0  0  0  1  0  0  0  0  0  0  0  0
   -4.1961    3.5848   -0.1178 H   0  0  0  1  0  0  0  0  0  0  0  0
   -3.2004    3.1941   -0.1449 C   0  0  0  1  0  0  0  0  0  0  0  0
   -2.7398    3.4544   -1.0750 H   0  0  0  1  0  0  0  0  0  0  0  0
   -9.9104    1.3660   -6.0405 N   0  0  0  1  0  0  0  0  0  0  0  0
  -11.3711    1.8136   -3.1381 C   0  0  0  1  0  0  0  0  0  0  0  0
  -12.1248    0.6514   -2.5212 C   0  0  0  1  0  0  0  0  0  0  0  0
  -11.9328    2.8639   -3.4019 O   0  0  0  1  0  0  0  0  0  0  0  0
  -10.3191    1.1965   -7.4269 C   0  0  0  1  0  0  0  0  0  0  0  0
    1.8257    0.5707    1.3734 O   0  0  0  1  0  0  0  0  0  0  0  0
   -9.5701    3.5910   -6.1822 O   0  0  0  1  0  0  0  0  0  0  0  0
  -10.0650    1.6053   -3.3681 N   0  0  0  1  0  0  0  0  0  0  0  0
   -1.2097   -6.5329   -3.4705 O   0  5  0  1  0  0  0  0  0  0  0  0
   -4.4316    1.0747   -0.2211 N   0  0  0  1  0  0  0  0  0  0  0  0
   -3.4548   -6.2790   -3.0993 O   0  0  0  1  0  0  0  0  0  0  0  0
   -7.4067    2.3481   -2.3105 C   0  0  0  1  0  0  0  0  0  0  0  0
   -7.7184    2.2395   -3.7907 C   0  0  0  1  0  0  0  0  0  0  0  0
   -2.2957    0.7472    0.2994 C   0  0  0  1  0  0  0  0  0  0  0  0
   -6.0027    1.8965   -1.9571 C   0  0  0  1  0  0  0  0  0  0  0  0
   -2.9403   -0.4981    0.2761 C   0  0  0  1  0  0  0  0  0  0  0  0
    2.2062   -0.2421   -0.8256 C   0  0  0  1  0  0  0  0  0  0  0  0
   -9.1940    2.5497   -4.0589 C   0  0  0  1  0  0  0  0  0  0  0  0
   -5.7371    1.6845   -0.4755 C   0  0  0  1  0  0  0  0  0  0  0  0
   -2.3007   -1.8375    0.5562 C   0  0  0  1  0  0  0  0  0  0  0  0
   -9.5512    2.5525   -5.5423 C   0  0  0  1  0  0  0  0  0  0  0  0
    1.5559    0.8582    0.0196 C   0  0  0  1  0  0  0  0  0  0  0  0
    1.9116   -0.1142   -2.3113 C   0  0  0  1  0  0  0  0  0  0  0  0
   -0.8866    0.9745    0.5969 C   0  0  0  1  0  0  0  0  0  0  0  0
    2.5766   -1.1906   -3.1521 C   0  0  0  1  0  0  0  0  0  0  0  0
    0.0913    0.9390   -0.2733 C   0  0  0  1  0  0  0  0  0  0  0  0
   -3.2454    1.7108   -0.0114 C   0  0  0  1  0  0  0  0  0  0  0  0
    2.5091   -0.9185   -4.6344 C   0  0  0  1  0  0  0  0  0  0  0  0
   -4.2652   -0.2814   -0.0488 C   0  0  0  1  0  0  0  0  0  0  0  0
   -1.7373   -2.4649   -0.6793 C   0  0  0  1  0  0  0  0  0  0  0  0
   -2.1870   -3.5448   -1.2315 C   0  0  0  1  0  0  0  0  0  0  0  0
   -3.4174   -4.3483   -0.9050 C   0  0  0  1  0  0  0  0  0  0  0  0
    3.1533    0.3769   -5.0906 C   0  0  0  1  0  0  0  0  0  0  0  0
   -3.0988   -5.7419   -0.3888 C   0  0  0  1  0  0  0  0  0  0  0  0
   -1.9782   -6.3226   -1.2359 C   0  0  0  1  0  0  0  0  0  0  0  0
   -2.3102   -6.3733   -2.6875 C   0  0  0  1  0  0  0  0  0  0  0  0
   -9.8982    0.5826   -5.4519 H   0  0  0  1  0  0  0  0  0  0  0  0
  -11.4540   -0.1678   -2.3671 H   0  0  0  1  0  0  0  0  0  0  0  0
  -12.9125    0.3483   -3.1788 H   0  0  0  1  0  0  0  0  0  0  0  0
  -12.5396    0.9538   -1.5824 H   0  0  0  1  0  0  0  0  0  0  0  0
  -11.3604    1.4234   -7.5226 H   0  0  0  1  0  0  0  0  0  0  0  0
  -10.1456    0.1846   -7.7285 H   0  0  0  1  0  0  0  0  0  0  0  0
   -9.7518    1.8569   -8.0490 H   0  0  0  1  0  0  0  0  0  0  0  0
    1.1905   -0.0721    1.6973 H   0  0  0  1  0  0  0  0  0  0  0  0
   -9.6716    0.7654   -3.0518 H   0  0  0  1  0  0  0  0  0  0  0  0
   -8.1040    1.7414   -1.7715 H   0  0  0  1  0  0  0  0  0  0  0  0
   -7.5190    3.3702   -2.0143 H   0  0  0  1  0  0  0  0  0  0  0  0
   -7.5030    1.2453   -4.1226 H   0  0  0  1  0  0  0  0  0  0  0  0
   -7.1101    2.9356   -4.3294 H   0  0  0  1  0  0  0  0  0  0  0  0
   -5.3187    2.6391   -2.3115 H   0  0  0  1  0  0  0  0  0  0  0  0
   -5.8176    0.9709   -2.4609 H   0  0  0  1  0  0  0  0  0  0  0  0
    1.8414   -1.1896   -0.4878 H   0  0  0  1  0  0  0  0  0  0  0  0
    3.2659   -0.1965   -0.6847 H   0  0  0  1  0  0  0  0  0  0  0  0
   -9.3904    3.5302   -3.6782 H   0  0  0  1  0  0  0  0  0  0  0  0
   -5.7748    2.6327    0.0187 H   0  0  0  1  0  0  0  0  0  0  0  0
   -6.4976    1.0446   -0.0791 H   0  0  0  1  0  0  0  0  0  0  0  0
   -3.0395   -2.4924    0.9686 H   0  0  0  1  0  0  0  0  0  0  0  0
   -1.5100   -1.7003    1.2639 H   0  0  0  1  0  0  0  0  0  0  0  0
    2.0041    1.7922   -0.2481 H   0  0  0  1  0  0  0  0  0  0  0  0
    2.2601    0.8408   -2.6452 H   0  0  0  1  0  0  0  0  0  0  0  0
    0.8530   -0.1780   -2.4539 H   0  0  0  1  0  0  0  0  0  0  0  0
   -0.6368    1.1827    1.5847 H   0  0  0  1  0  0  0  0  0  0  0  0
    2.0902   -2.1232   -2.9558 H   0  0  0  1  0  0  0  0  0  0  0  0
    3.6055   -1.2572   -2.8659 H   0  0  0  1  0  0  0  0  0  0  0  0
   -0.1797    0.9704   -1.2768 H   0  0  0  1  0  0  0  0  0  0  0  0
    1.4777   -0.8913   -4.9178 H   0  0  0  1  0  0  0  0  0  0  0  0
    2.9973   -1.7253   -5.1401 H   0  0  0  1  0  0  0  0  0  0  0  0
   -0.9233   -1.9980   -1.1278 H   0  0  0  1  0  0  0  0  0  0  0  0
   -1.6136   -3.9123   -2.0174 H   0  0  0  1  0  0  0  0  0  0  0  0
   -4.0091   -4.4406   -1.7918 H   0  0  0  1  0  0  0  0  0  0  0  0
   -3.9757   -3.8269   -0.1558 H   0  0  0  1  0  0  0  0  0  0  0  0
    2.5257    1.2013   -4.8234 H   0  0  0  1  0  0  0  0  0  0  0  0
    3.2819    0.3564   -6.1526 H   0  0  0  1  0  0  0  0  0  0  0  0
    4.1067    0.4868   -4.6174 H   0  0  0  1  0  0  0  0  0  0  0  0
   -3.9673   -6.3624   -0.4640 H   0  0  0  1  0  0  0  0  0  0  0  0
   -2.7872   -5.6861    0.6333 H   0  0  0  1  0  0  0  0  0  0  0  0
   -1.7762   -7.3175   -0.8978 H   0  0  0  1  0  0  0  0  0  0  0  0
   -1.1053   -5.7174   -1.1071 H   0  0  0  1  0  0  0  0  0  0  0  0
  1 34  1  0  0  0  0
  2  4  1  0  0  0  0
  3  4  1  0  0  0  0
  4  5  1  0  0  0  0
  4 32  1  0  0  0  0
  6 10  1  0  0  0  0
  6 26  1  0  0  0  0
  6 42  1  0  0  0  0
  7  8  1  0  0  0  0
  7  9  2  0  0  0  0
  7 13  1  0  0  0  0
  8 43  1  0  0  0  0
  8 44  1  0  0  0  0
  8 45  1  0  0  0  0
 10 46  1  0  0  0  0
 10 47  1  0  0  0  0
 10 48  1  0  0  0  0
 11 27  1  0  0  0  0
 11 49  1  0  0  0  0
 12 26  2  0  0  0  0
 13 23  1  0  0  0  0
 13 50  1  0  0  0  0
 14 41  1  0  0  0  0
 15 24  1  0  0  0  0
 15 32  4  0  0  0  0
 15 34  4  0  0  0  0
 16 41  2  0  0  0  0
 17 18  1  0  0  0  0
 17 20  1  0  0  0  0
 17 51  1  0  0  0  0
 17 52  1  0  0  0  0
 18 23  1  0  0  0  0
 18 53  1  0  0  0  0
 18 54  1  0  0  0  0
 19 21  4  0  0  0  0
 19 29  1  0  0  0  0
 19 32  4  0  0  0  0
 20 24  1  0  0  0  0
 20 55  1  0  0  0  0
 20 56  1  0  0  0  0
 21 25  1  0  0  0  0
 21 34  4  0  0  0  0
 22 27  1  0  0  0  0
 22 28  1  0  0  0  0
 22 57  1  0  0  0  0
 22 58  1  0  0  0  0
 23 26  1  0  0  0  0
 23 59  1  0  0  0  0
 24 60  1  0  0  0  0
 24 61  1  0  0  0  0
 25 35  1  0  0  0  0
 25 62  1  0  0  0  0
 25 63  1  0  0  0  0
 27 31  1  0  0  0  0
 27 64  1  0  0  0  0
 28 30  1  0  0  0  0
 28 65  1  0  0  0  0
 28 66  1  0  0  0  0
 29 31  2  0  0  0  0
 29 67  1  0  0  0  0
 30 33  1  0  0  0  0
 30 68  1  0  0  0  0
 30 69  1  0  0  0  0
 31 70  1  0  0  0  0
 33 38  1  0  0  0  0
 33 71  1  0  0  0  0
 33 72  1  0  0  0  0
 35 36  2  0  0  0  0
 35 73  1  0  0  0  0
 36 37  1  0  0  0  0
 36 74  1  0  0  0  0
 37 39  1  0  0  0  0
 37 75  1  0  0  0  0
 37 76  1  0  0  0  0
 38 77  1  0  0  0  0
 38 78  1  0  0  0  0
 38 79  1  0  0  0  0
 39 40  1  0  0  0  0
 39 80  1  0  0  0  0
 39 81  1  0  0  0  0
 40 41  1  0  0  0  0
 40 82  1  0  0  0  0
 40 83  1  0  0  0  0
M  END
> <ConfClashScore>
0 

> <ConfOneFourInteractionScore>
-0.984013 

> <ConfScore>
0.034899 

> <ConfScorePBest>
0.00467247 

> <ConfTolerance>
1.78606 

$$$$
9548876
  PyMOL2.2          3D                             0

 83 83  0  0  0  0  0  0  0  0999 V2000
   -5.0100   -1.0376   -0.1018 H   0  0  0  1  0  0  0  0  0  0  0  0
   -2.4516    3.4289   -0.8975 H   0  0  0  1  0  0  0  0  0  0  0  0
   -2.8515    3.5965    0.7950 H   0  0  0  1  0  0  0  0  0  0  0  0
   -3.1700    3.1890   -0.1417 C   0  0  0  1  0  0  0  0  0  0  0  0
   -4.1195    3.6046   -0.4076 H   0  0  0  1  0  0  0  0  0  0  0  0
   -5.7834    8.1328   -3.4042 N   0  0  0  1  0  0  0  0  0  0  0  0
   -8.9690    6.9264   -1.4896 C   0  0  0  1  0  0  0  0  0  0  0  0
  -10.4526    6.6348   -1.2623 C   0  0  0  1  0  0  0  0  0  0  0  0
   -8.5024    8.0292   -1.2070 O   0  0  0  1  0  0  0  0  0  0  0  0
   -5.5044    9.1249   -4.4317 C   0  0  0  1  0  0  0  0  0  0  0  0
    1.9156    1.2077    0.4091 O   0  0  0  1  0  0  0  0  0  0  0  0
   -7.5024    7.1638   -4.4963 O   0  0  0  1  0  0  0  0  0  0  0  0
   -8.2417    5.9686   -2.0860 N   0  0  0  1  0  0  0  0  0  0  0  0
    2.2035   -4.3889   -0.7185 O   0  5  0  1  0  0  0  0  0  0  0  0
   -4.4733    1.0541   -0.1993 N   0  0  0  1  0  0  0  0  0  0  0  0
    4.4590   -4.0337   -0.6412 O   0  0  0  1  0  0  0  0  0  0  0  0
   -6.1682    4.0033   -1.4890 C   0  0  0  1  0  0  0  0  0  0  0  0
   -6.1192    4.8943   -2.7241 C   0  0  0  1  0  0  0  0  0  0  0  0
   -2.3197    0.7607    0.2655 C   0  0  0  1  0  0  0  0  0  0  0  0
   -5.6591    2.5937   -1.7424 C   0  0  0  1  0  0  0  0  0  0  0  0
   -2.9458   -0.4943    0.2634 C   0  0  0  1  0  0  0  0  0  0  0  0
    1.6039    3.3091   -0.6552 C   0  0  0  1  0  0  0  0  0  0  0  0
   -6.8432    6.2052   -2.4033 C   0  0  0  1  0  0  0  0  0  0  0  0
   -5.7501    1.6918   -0.5222 C   0  0  0  1  0  0  0  0  0  0  0  0
   -2.2788   -1.8228    0.5308 C   0  0  0  1  0  0  0  0  0  0  0  0
   -6.7619    7.2318   -3.5291 C   0  0  0  1  0  0  0  0  0  0  0  0
    1.1702    2.4009    0.5019 C   0  0  0  1  0  0  0  0  0  0  0  0
    3.0806    3.6248   -0.4892 C   0  0  0  1  0  0  0  0  0  0  0  0
   -0.9297    1.0262    0.6164 C   0  0  0  1  0  0  0  0  0  0  0  0
    3.6323    4.5208   -1.5861 C   0  0  0  1  0  0  0  0  0  0  0  0
   -0.3061    2.1656    0.4504 C   0  0  0  1  0  0  0  0  0  0  0  0
   -3.2918    1.7087   -0.0232 C   0  0  0  1  0  0  0  0  0  0  0  0
    5.1241    4.6947   -1.3579 C   0  0  0  1  0  0  0  0  0  0  0  0
   -4.2820   -0.2987   -0.0270 C   0  0  0  1  0  0  0  0  0  0  0  0
   -1.4337   -1.8576    1.7644 C   0  0  0  1  0  0  0  0  0  0  0  0
   -0.1593   -2.1490    1.8399 C   0  0  0  1  0  0  0  0  0  0  0  0
    0.7376   -2.6030    0.7150 C   0  0  0  1  0  0  0  0  0  0  0  0
    5.7175    5.6496   -2.3798 C   0  0  0  1  0  0  0  0  0  0  0  0
    2.0539   -1.8315    0.7275 C   0  0  0  1  0  0  0  0  0  0  0  0
    2.9658   -2.1741   -0.4432 C   0  0  0  1  0  0  0  0  0  0  0  0
    3.3142   -3.6163   -0.5806 C   0  0  0  1  0  0  0  0  0  0  0  0
   -5.2344    8.1254   -2.5924 H   0  0  0  1  0  0  0  0  0  0  0  0
  -10.5562    5.7433   -0.6798 H   0  0  0  1  0  0  0  0  0  0  0  0
  -10.9385    6.5022   -2.2063 H   0  0  0  1  0  0  0  0  0  0  0  0
  -10.9013    7.4549   -0.7417 H   0  0  0  1  0  0  0  0  0  0  0  0
   -5.2652    8.6305   -5.3500 H   0  0  0  1  0  0  0  0  0  0  0  0
   -4.6767    9.7307   -4.1269 H   0  0  0  1  0  0  0  0  0  0  0  0
   -6.3662    9.7431   -4.5737 H   0  0  0  1  0  0  0  0  0  0  0  0
    2.4990    1.1344    1.1679 H   0  0  0  1  0  0  0  0  0  0  0  0
   -8.6546    5.1079   -2.3079 H   0  0  0  1  0  0  0  0  0  0  0  0
   -7.1828    3.9426   -1.1546 H   0  0  0  1  0  0  0  0  0  0  0  0
   -5.5663    4.4492   -0.7250 H   0  0  0  1  0  0  0  0  0  0  0  0
   -6.6044    4.4045   -3.5424 H   0  0  0  1  0  0  0  0  0  0  0  0
   -5.1010    5.0978   -2.9826 H   0  0  0  1  0  0  0  0  0  0  0  0
   -4.6346    2.6523   -2.0453 H   0  0  0  1  0  0  0  0  0  0  0  0
   -6.2400    2.1595   -2.5292 H   0  0  0  1  0  0  0  0  0  0  0  0
    1.0362    4.2159   -0.6351 H   0  0  0  1  0  0  0  0  0  0  0  0
    1.4440    2.8083   -1.5871 H   0  0  0  1  0  0  0  0  0  0  0  0
   -6.3691    6.6315   -1.5439 H   0  0  0  1  0  0  0  0  0  0  0  0
   -6.0615    2.2794    0.3160 H   0  0  0  1  0  0  0  0  0  0  0  0
   -6.4758    0.9290   -0.7130 H   0  0  0  1  0  0  0  0  0  0  0  0
   -1.6562   -2.0583   -0.3070 H   0  0  0  1  0  0  0  0  0  0  0  0
   -3.0424   -2.5660    0.6283 H   0  0  0  1  0  0  0  0  0  0  0  0
    1.3992    2.9000    1.4203 H   0  0  0  1  0  0  0  0  0  0  0  0
    3.6270    2.7048   -0.4958 H   0  0  0  1  0  0  0  0  0  0  0  0
    3.2190    4.1156    0.4514 H   0  0  0  1  0  0  0  0  0  0  0  0
   -0.3871    0.2436    1.0344 H   0  0  0  1  0  0  0  0  0  0  0  0
    3.1479    5.4742   -1.5515 H   0  0  0  1  0  0  0  0  0  0  0  0
    3.4632    4.0687   -2.5411 H   0  0  0  1  0  0  0  0  0  0  0  0
   -0.9018    2.9971    0.2624 H   0  0  0  1  0  0  0  0  0  0  0  0
    5.6058    3.7433   -1.4457 H   0  0  0  1  0  0  0  0  0  0  0  0
    5.2854    5.0874   -0.3757 H   0  0  0  1  0  0  0  0  0  0  0  0
   -1.9099   -1.6251    2.6593 H   0  0  0  1  0  0  0  0  0  0  0  0
    0.2825   -2.0575    2.7770 H   0  0  0  1  0  0  0  0  0  0  0  0
    0.2418   -2.4357   -0.2183 H   0  0  0  1  0  0  0  0  0  0  0  0
    0.9419   -3.6471    0.8288 H   0  0  0  1  0  0  0  0  0  0  0  0
    6.0387    5.0988   -3.2390 H   0  0  0  1  0  0  0  0  0  0  0  0
    6.5546    6.1577   -1.9487 H   0  0  0  1  0  0  0  0  0  0  0  0
    4.9769    6.3648   -2.6713 H   0  0  0  1  0  0  0  0  0  0  0  0
    2.5705   -2.0566    1.6371 H   0  0  0  1  0  0  0  0  0  0  0  0
    1.8340   -0.7849    0.6913 H   0  0  0  1  0  0  0  0  0  0  0  0
    3.8762   -1.6245   -0.3244 H   0  0  0  1  0  0  0  0  0  0  0  0
    2.4771   -1.8654   -1.3436 H   0  0  0  1  0  0  0  0  0  0  0  0
  1 34  1  0  0  0  0
  2  4  1  0  0  0  0
  3  4  1  0  0  0  0
  4  5  1  0  0  0  0
  4 32  1  0  0  0  0
  6 10  1  0  0  0  0
  6 26  1  0  0  0  0
  6 42  1  0  0  0  0
  7  8  1  0  0  0  0
  7  9  2  0  0  0  0
  7 13  1  0  0  0  0
  8 43  1  0  0  0  0
  8 44  1  0  0  0  0
  8 45  1  0  0  0  0
 10 46  1  0  0  0  0
 10 47  1  0  0  0  0
 10 48  1  0  0  0  0
 11 27  1  0  0  0  0
 11 49  1  0  0  0  0
 12 26  2  0  0  0  0
 13 23  1  0  0  0  0
 13 50  1  0  0  0  0
 14 41  1  0  0  0  0
 15 24  1  0  0  0  0
 15 32  4  0  0  0  0
 15 34  4  0  0  0  0
 16 41  2  0  0  0  0
 17 18  1  0  0  0  0
 17 20  1  0  0  0  0
 17 51  1  0  0  0  0
 17 52  1  0  0  0  0
 18 23  1  0  0  0  0
 18 53  1  0  0  0  0
 18 54  1  0  0  0  0
 19 21  4  0  0  0  0
 19 29  1  0  0  0  0
 19 32  4  0  0  0  0
 20 24  1  0  0  0  0
 20 55  1  0  0  0  0
 20 56  1  0  0  0  0
 21 25  1  0  0  0  0
 21 34  4  0  0  0  0
 22 27  1  0  0  0  0
 22 28  1  0  0  0  0
 22 57  1  0  0  0  0
 22 58  1  0  0  0  0
 23 26  1  0  0  0  0
 23 59  1  0  0  0  0
 24 60  1  0  0  0  0
 24 61  1  0  0  0  0
 25 35  1  0  0  0  0
 25 62  1  0  0  0  0
 25 63  1  0  0  0  0
 27 31  1  0  0  0  0
 27 64  1  0  0  0  0
 28 30  1  0  0  0  0
 28 65  1  0  0  0  0
 28 66  1  0  0  0  0
 29 31  2  0  0  0  0
 29 67  1  0  0  0  0
 30 33  1  0  0  0  0
 30 68  1  0  0  0  0
 30 69  1  0  0  0  0
 31 70  1  0  0  0  0
 33 38  1  0  0  0  0
 33 71  1  0  0  0  0
 33 72  1  0  0  0  0
 35 36  2  0  0  0  0
 35 73  1  0  0  0  0
 36 37  1  0  0  0  0
 36 74  1  0  0  0  0
 37 39  1  0  0  0  0
 37 75  1  0  0  0  0
 37 76  1  0  0  0  0
 38 77  1  0  0  0  0
 38 78  1  0  0  0  0
 38 79  1  0  0  0  0
 39 40  1  0  0  0  0
 39 80  1  0  0  0  0
 39 81  1  0  0  0  0
 40 41  1  0  0  0  0
 40 82  1  0  0  0  0
 40 83  1  0  0  0  0
M  END
> <ConfClashScore>
0 

> <ConfOneFourInteractionScore>
-0.992809 

> <ConfScore>
0.0351208 

> <ConfScorePBest>
0.00464399 

> <ConfTolerance>
1.89659 

$$$$
9548876
  PyMOL2.2          3D                             0

 83 83  0  0  0  0  0  0  0  0999 V2000
   -5.0070   -1.0357   -0.0761 H   0  0  0  1  0  0  0  0  0  0  0  0
   -2.1849    3.4947    0.1651 H   0  0  0  1  0  0  0  0  0  0  0  0
   -3.8871    3.6598    0.5225 H   0  0  0  1  0  0  0  0  0  0  0  0
   -3.1708    3.1925   -0.1205 C   0  0  0  1  0  0  0  0  0  0  0  0
   -3.3544    3.4863   -1.1329 H   0  0  0  1  0  0  0  0  0  0  0  0
   -8.9775    3.4071    3.6216 N   0  0  0  1  0  0  0  0  0  0  0  0
   -9.0297    0.4963    3.5254 C   0  0  0  1  0  0  0  0  0  0  0  0
  -10.0165   -0.6138    3.8305 C   0  0  0  1  0  0  0  0  0  0  0  0
   -8.2556    0.9162    4.3842 O   0  0  0  1  0  0  0  0  0  0  0  0
   -8.9008    4.4303    4.6536 C   0  0  0  1  0  0  0  0  0  0  0  0
    1.5143    2.1392    1.4457 O   0  0  0  1  0  0  0  0  0  0  0  0
   -6.9167    3.7817    2.8253 O   0  0  0  1  0  0  0  0  0  0  0  0
   -9.0626    0.9779    2.2728 N   0  0  0  1  0  0  0  0  0  0  0  0
    1.8104   -3.8915    2.2110 O   0  5  0  1  0  0  0  0  0  0  0  0
   -4.4727    1.0566   -0.1734 N   0  0  0  1  0  0  0  0  0  0  0  0
   -0.3486   -3.4262    2.7559 O   0  0  0  1  0  0  0  0  0  0  0  0
   -7.4850    3.4460   -0.1878 C   0  0  0  1  0  0  0  0  0  0  0  0
   -8.4987    2.4773    0.3992 C   0  0  0  1  0  0  0  0  0  0  0  0
   -2.3158    0.7642    0.2768 C   0  0  0  1  0  0  0  0  0  0  0  0
   -6.0567    2.9879   -0.0258 C   0  0  0  1  0  0  0  0  0  0  0  0
   -2.9409   -0.4913    0.2766 C   0  0  0  1  0  0  0  0  0  0  0  0
    1.1334    0.8654    3.4275 C   0  0  0  1  0  0  0  0  0  0  0  0
   -8.1373    2.0007    1.8085 C   0  0  0  1  0  0  0  0  0  0  0  0
   -5.7338    1.6430   -0.6281 C   0  0  0  1  0  0  0  0  0  0  0  0
   -2.3260   -1.8476    0.5292 C   0  0  0  1  0  0  0  0  0  0  0  0
   -7.9685    3.1652    2.7799 C   0  0  0  1  0  0  0  0  0  0  0  0
    1.1524    0.8371    1.8956 C   0  0  0  1  0  0  0  0  0  0  0  0
    0.7744   -0.4077    4.1453 C   0  0  0  1  0  0  0  0  0  0  0  0
   -0.9106    1.0692    0.5202 C   0  0  0  1  0  0  0  0  0  0  0  0
    0.9156   -0.3679    5.6582 C   0  0  0  1  0  0  0  0  0  0  0  0
   -0.1750    0.3919    1.3692 C   0  0  0  1  0  0  0  0  0  0  0  0
   -3.2906    1.7119   -0.0038 C   0  0  0  1  0  0  0  0  0  0  0  0
    0.6486   -1.7377    6.2605 C   0  0  0  1  0  0  0  0  0  0  0  0
   -4.2791   -0.2963   -0.0048 C   0  0  0  1  0  0  0  0  0  0  0  0
   -2.4682   -2.8156   -0.6022 C   0  0  0  1  0  0  0  0  0  0  0  0
   -1.5039   -3.4485   -1.2269 C   0  0  0  1  0  0  0  0  0  0  0  0
   -0.0350   -3.2620   -0.9556 C   0  0  0  1  0  0  0  0  0  0  0  0
    0.6137   -1.6615    7.7781 C   0  0  0  1  0  0  0  0  0  0  0  0
    0.5771   -4.5354   -0.4268 C   0  0  0  1  0  0  0  0  0  0  0  0
    0.1155   -4.9573    0.9620 C   0  0  0  1  0  0  0  0  0  0  0  0
    0.4642   -4.0169    2.0639 C   0  0  0  1  0  0  0  0  0  0  0  0
   -9.7979    2.8770    3.5412 H   0  0  0  1  0  0  0  0  0  0  0  0
  -10.4765   -0.9424    2.9220 H   0  0  0  1  0  0  0  0  0  0  0  0
  -10.7681   -0.2488    4.4989 H   0  0  0  1  0  0  0  0  0  0  0  0
   -9.5012   -1.4335    4.2859 H   0  0  0  1  0  0  0  0  0  0  0  0
   -8.5293    3.9974    5.5588 H   0  0  0  1  0  0  0  0  0  0  0  0
   -9.8756    4.8361    4.8263 H   0  0  0  1  0  0  0  0  0  0  0  0
   -8.2409    5.2097    4.3343 H   0  0  0  1  0  0  0  0  0  0  0  0
    0.7995    2.5071    0.9210 H   0  0  0  1  0  0  0  0  0  0  0  0
   -9.7331    0.6286    1.6492 H   0  0  0  1  0  0  0  0  0  0  0  0
   -7.5958    4.3909    0.3018 H   0  0  0  1  0  0  0  0  0  0  0  0
   -7.6887    3.5587   -1.2321 H   0  0  0  1  0  0  0  0  0  0  0  0
   -8.5622    1.6230   -0.2420 H   0  0  0  1  0  0  0  0  0  0  0  0
   -9.4501    2.9652    0.4396 H   0  0  0  1  0  0  0  0  0  0  0  0
   -5.8428    2.9400    1.0215 H   0  0  0  1  0  0  0  0  0  0  0  0
   -5.4228    3.7162   -0.4869 H   0  0  0  1  0  0  0  0  0  0  0  0
    0.4253    1.6105    3.7247 H   0  0  0  1  0  0  0  0  0  0  0  0
    2.1113    1.1516    3.7541 H   0  0  0  1  0  0  0  0  0  0  0  0
   -7.1757    1.5384    1.7280 H   0  0  0  1  0  0  0  0  0  0  0  0
   -6.5249    0.9672   -0.3779 H   0  0  0  1  0  0  0  0  0  0  0  0
   -5.6843    1.7570   -1.6909 H   0  0  0  1  0  0  0  0  0  0  0  0
   -2.7957   -2.2715    1.3921 H   0  0  0  1  0  0  0  0  0  0  0  0
   -1.2825   -1.7103    0.7218 H   0  0  0  1  0  0  0  0  0  0  0  0
    1.8930    0.1305    1.5837 H   0  0  0  1  0  0  0  0  0  0  0  0
    1.4098   -1.1850    3.7754 H   0  0  0  1  0  0  0  0  0  0  0  0
   -0.2446   -0.6395    3.9154 H   0  0  0  1  0  0  0  0  0  0  0  0
   -0.4737    1.8562   -0.0008 H   0  0  0  1  0  0  0  0  0  0  0  0
    0.2137    0.3339    6.0578 H   0  0  0  1  0  0  0  0  0  0  0  0
    1.9095   -0.0617    5.9099 H   0  0  0  1  0  0  0  0  0  0  0  0
   -0.5421   -0.5228    1.7010 H   0  0  0  1  0  0  0  0  0  0  0  0
    1.4250   -2.4102    5.9607 H   0  0  0  1  0  0  0  0  0  0  0  0
   -0.2939   -2.0993    5.9056 H   0  0  0  1  0  0  0  0  0  0  0  0
   -3.4366   -3.0078   -0.9290 H   0  0  0  1  0  0  0  0  0  0  0  0
   -1.7744   -4.1298   -1.9646 H   0  0  0  1  0  0  0  0  0  0  0  0
    0.0921   -2.4846   -0.2315 H   0  0  0  1  0  0  0  0  0  0  0  0
    0.4575   -2.9872   -1.8649 H   0  0  0  1  0  0  0  0  0  0  0  0
   -0.0946   -0.9195    8.0823 H   0  0  0  1  0  0  0  0  0  0  0  0
    1.5843   -1.3990    8.1442 H   0  0  0  1  0  0  0  0  0  0  0  0
    0.3270   -2.6124    8.1763 H   0  0  0  1  0  0  0  0  0  0  0  0
    1.6384   -4.4025   -0.3951 H   0  0  0  1  0  0  0  0  0  0  0  0
    0.3361   -5.3246   -1.1080 H   0  0  0  1  0  0  0  0  0  0  0  0
    0.5600   -5.9050    1.1838 H   0  0  0  1  0  0  0  0  0  0  0  0
   -0.9494   -5.0587    0.9392 H   0  0  0  1  0  0  0  0  0  0  0  0
  1 34  1  0  0  0  0
  2  4  1  0  0  0  0
  3  4  1  0  0  0  0
  4  5  1  0  0  0  0
  4 32  1  0  0  0  0
  6 10  1  0  0  0  0
  6 26  1  0  0  0  0
  6 42  1  0  0  0  0
  7  8  1  0  0  0  0
  7  9  2  0  0  0  0
  7 13  1  0  0  0  0
  8 43  1  0  0  0  0
  8 44  1  0  0  0  0
  8 45  1  0  0  0  0
 10 46  1  0  0  0  0
 10 47  1  0  0  0  0
 10 48  1  0  0  0  0
 11 27  1  0  0  0  0
 11 49  1  0  0  0  0
 12 26  2  0  0  0  0
 13 23  1  0  0  0  0
 13 50  1  0  0  0  0
 14 41  1  0  0  0  0
 15 24  1  0  0  0  0
 15 32  4  0  0  0  0
 15 34  4  0  0  0  0
 16 41  2  0  0  0  0
 17 18  1  0  0  0  0
 17 20  1  0  0  0  0
 17 51  1  0  0  0  0
 17 52  1  0  0  0  0
 18 23  1  0  0  0  0
 18 53  1  0  0  0  0
 18 54  1  0  0  0  0
 19 21  4  0  0  0  0
 19 29  1  0  0  0  0
 19 32  4  0  0  0  0
 20 24  1  0  0  0  0
 20 55  1  0  0  0  0
 20 56  1  0  0  0  0
 21 25  1  0  0  0  0
 21 34  4  0  0  0  0
 22 27  1  0  0  0  0
 22 28  1  0  0  0  0
 22 57  1  0  0  0  0
 22 58  1  0  0  0  0
 23 26  1  0  0  0  0
 23 59  1  0  0  0  0
 24 60  1  0  0  0  0
 24 61  1  0  0  0  0
 25 35  1  0  0  0  0
 25 62  1  0  0  0  0
 25 63  1  0  0  0  0
 27 31  1  0  0  0  0
 27 64  1  0  0  0  0
 28 30  1  0  0  0  0
 28 65  1  0  0  0  0
 28 66  1  0  0  0  0
 29 31  2  0  0  0  0
 29 67  1  0  0  0  0
 30 33  1  0  0  0  0
 30 68  1  0  0  0  0
 30 69  1  0  0  0  0
 31 70  1  0  0  0  0
 33 38  1  0  0  0  0
 33 71  1  0  0  0  0
 33 72  1  0  0  0  0
 35 36  2  0  0  0  0
 35 73  1  0  0  0  0
 36 37  1  0  0  0  0
 36 74  1  0  0  0  0
 37 39  1  0  0  0  0
 37 75  1  0  0  0  0
 37 76  1  0  0  0  0
 38 77  1  0  0  0  0
 38 78  1  0  0  0  0
 38 79  1  0  0  0  0
 39 40  1  0  0  0  0
 39 80  1  0  0  0  0
 39 81  1  0  0  0  0
 40 41  1  0  0  0  0
 40 82  1  0  0  0  0
 40 83  1  0  0  0  0
M  END
> <ConfClashScore>
1.16604e-06 

> <ConfOneFourInteractionScore>
-0.98891 

> <ConfScore>
0.036479 

> <ConfScorePBest>
0.00461551 

> <ConfTolerance>
1.92797 

$$$$
9548876
  PyMOL2.2          3D                             0

 83 83  0  0  0  0  0  0  0  0999 V2000
   -4.9988   -1.0423   -0.0790 H   0  0  0  1  0  0  0  0  0  0  0  0
   -2.5685    3.5402    0.6833 H   0  0  0  1  0  0  0  0  0  0  0  0
   -4.1569    3.6148   -0.0405 H   0  0  0  1  0  0  0  0  0  0  0  0
   -3.1788    3.1887   -0.1222 C   0  0  0  1  0  0  0  0  0  0  0  0
   -2.7400    3.4778   -1.0543 H   0  0  0  1  0  0  0  0  0  0  0  0
   -9.8960    5.1640   -0.4168 N   0  0  0  1  0  0  0  0  0  0  0  0
  -11.7612    3.5468    1.0442 C   0  0  0  1  0  0  0  0  0  0  0  0
  -12.7458    2.4523    0.6810 C   0  0  0  1  0  0  0  0  0  0  0  0
  -12.1034    4.7286    1.0448 O   0  0  0  1  0  0  0  0  0  0  0  0
  -10.0130    6.2036   -1.4284 C   0  0  0  1  0  0  0  0  0  0  0  0
    1.8485    1.5972    0.9397 O   0  0  0  1  0  0  0  0  0  0  0  0
   -9.1769    6.4641    1.2607 O   0  0  0  1  0  0  0  0  0  0  0  0
  -10.5080    3.1876    1.3642 N   0  0  0  1  0  0  0  0  0  0  0  0
   -1.8488   -7.9146    0.4149 O   0  5  0  1  0  0  0  0  0  0  0  0
   -4.4588    1.0455   -0.2273 N   0  0  0  1  0  0  0  0  0  0  0  0
   -2.5141   -7.5964    2.5825 O   0  0  0  1  0  0  0  0  0  0  0  0
   -7.6797    2.9151    0.4856 C   0  0  0  1  0  0  0  0  0  0  0  0
   -8.1387    3.4505    1.8321 C   0  0  0  1  0  0  0  0  0  0  0  0
   -2.3089    0.7621    0.2606 C   0  0  0  1  0  0  0  0  0  0  0  0
   -6.4324    2.0743    0.7038 C   0  0  0  1  0  0  0  0  0  0  0  0
   -2.9365   -0.4918    0.2868 C   0  0  0  1  0  0  0  0  0  0  0  0
    1.1468    2.7274    2.9352 C   0  0  0  1  0  0  0  0  0  0  0  0
   -9.5023    4.1563    1.7742 C   0  0  0  1  0  0  0  0  0  0  0  0
   -5.7441    1.6818   -0.5792 C   0  0  0  1  0  0  0  0  0  0  0  0
   -2.3281   -1.8416    0.5857 C   0  0  0  1  0  0  0  0  0  0  0  0
   -9.4820    5.3610    0.8382 C   0  0  0  1  0  0  0  0  0  0  0  0
    1.0092    1.4573    2.0940 C   0  0  0  1  0  0  0  0  0  0  0  0
    2.5421    2.8489    3.4959 C   0  0  0  1  0  0  0  0  0  0  0  0
   -0.9064    1.0713    0.5148 C   0  0  0  1  0  0  0  0  0  0  0  0
    2.7804    4.1494    4.2388 C   0  0  0  1  0  0  0  0  0  0  0  0
   -0.4056    1.1446    1.7224 C   0  0  0  1  0  0  0  0  0  0  0  0
   -3.2777    1.7033   -0.0598 C   0  0  0  1  0  0  0  0  0  0  0  0
    4.1776    4.3456    4.7729 C   0  0  0  1  0  0  0  0  0  0  0  0
   -4.2704   -0.3025   -0.0183 C   0  0  0  1  0  0  0  0  0  0  0  0
   -1.9158   -1.9715    2.0153 C   0  0  0  1  0  0  0  0  0  0  0  0
   -1.3634   -3.0519    2.5076 C   0  0  0  1  0  0  0  0  0  0  0  0
   -1.1277   -4.3247    1.7392 C   0  0  0  1  0  0  0  0  0  0  0  0
    4.3908    5.6016    5.6020 C   0  0  0  1  0  0  0  0  0  0  0  0
   -0.5358   -5.4247    2.5852 C   0  0  0  1  0  0  0  0  0  0  0  0
   -0.3911   -6.7727    1.8979 C   0  0  0  1  0  0  0  0  0  0  0  0
   -1.6943   -7.4641    1.6887 C   0  0  0  1  0  0  0  0  0  0  0  0
  -10.1391    4.2506   -0.6755 H   0  0  0  1  0  0  0  0  0  0  0  0
  -13.1206    1.9982    1.5744 H   0  0  0  1  0  0  0  0  0  0  0  0
  -12.2529    1.7129    0.0851 H   0  0  0  1  0  0  0  0  0  0  0  0
  -13.5587    2.8736    0.1272 H   0  0  0  1  0  0  0  0  0  0  0  0
  -10.2757    5.7611   -2.3665 H   0  0  0  1  0  0  0  0  0  0  0  0
   -9.0776    6.7141   -1.5247 H   0  0  0  1  0  0  0  0  0  0  0  0
  -10.7716    6.8999   -1.1378 H   0  0  0  1  0  0  0  0  0  0  0  0
    2.2749    2.4572    0.9559 H   0  0  0  1  0  0  0  0  0  0  0  0
  -10.2617    2.2400    1.3201 H   0  0  0  1  0  0  0  0  0  0  0  0
   -7.4556    3.7305   -0.1700 H   0  0  0  1  0  0  0  0  0  0  0  0
   -8.4512    2.3119    0.0546 H   0  0  0  1  0  0  0  0  0  0  0  0
   -7.4098    4.1494    2.1857 H   0  0  0  1  0  0  0  0  0  0  0  0
   -8.2096    2.6312    2.5167 H   0  0  0  1  0  0  0  0  0  0  0  0
   -6.7112    1.1828    1.2256 H   0  0  0  1  0  0  0  0  0  0  0  0
   -5.7442    2.6366    1.2997 H   0  0  0  1  0  0  0  0  0  0  0  0
    0.4460    2.6908    3.7430 H   0  0  0  1  0  0  0  0  0  0  0  0
    0.9400    3.5790    2.3213 H   0  0  0  1  0  0  0  0  0  0  0  0
   -9.7354    4.5046    2.7587 H   0  0  0  1  0  0  0  0  0  0  0  0
   -6.3547    0.9916   -1.1230 H   0  0  0  1  0  0  0  0  0  0  0  0
   -5.5677    2.5510   -1.1778 H   0  0  0  1  0  0  0  0  0  0  0  0
   -1.4667   -1.9760   -0.0347 H   0  0  0  1  0  0  0  0  0  0  0  0
   -3.0491   -2.6008    0.3650 H   0  0  0  1  0  0  0  0  0  0  0  0
    1.3752    0.6430    2.6839 H   0  0  0  1  0  0  0  0  0  0  0  0
    3.2394    2.7877    2.6866 H   0  0  0  1  0  0  0  0  0  0  0  0
    2.7078    2.0365    4.1723 H   0  0  0  1  0  0  0  0  0  0  0  0
   -0.2783    1.2406   -0.2966 H   0  0  0  1  0  0  0  0  0  0  0  0
    2.1032    4.1850    5.0664 H   0  0  0  1  0  0  0  0  0  0  0  0
    2.5677    4.9557    3.5683 H   0  0  0  1  0  0  0  0  0  0  0  0
   -1.0627    0.9660    2.5085 H   0  0  0  1  0  0  0  0  0  0  0  0
    4.8469    4.3836    3.9389 H   0  0  0  1  0  0  0  0  0  0  0  0
    4.4178    3.5017    5.3853 H   0  0  0  1  0  0  0  0  0  0  0  0
   -2.0753   -1.1641    2.6511 H   0  0  0  1  0  0  0  0  0  0  0  0
   -1.0654   -3.0289    3.5037 H   0  0  0  1  0  0  0  0  0  0  0  0
   -0.4559   -4.1163    0.9329 H   0  0  0  1  0  0  0  0  0  0  0  0
   -2.0634   -4.6635    1.3461 H   0  0  0  1  0  0  0  0  0  0  0  0
    4.7117    6.3995    4.9654 H   0  0  0  1  0  0  0  0  0  0  0  0
    5.1381    5.4157    6.3449 H   0  0  0  1  0  0  0  0  0  0  0  0
    3.4726    5.8737    6.0793 H   0  0  0  1  0  0  0  0  0  0  0  0
   -1.1645   -5.5568    3.4409 H   0  0  0  1  0  0  0  0  0  0  0  0
    0.4367   -5.1100    2.9016 H   0  0  0  1  0  0  0  0  0  0  0  0
    0.2329   -7.3977    2.5020 H   0  0  0  1  0  0  0  0  0  0  0  0
    0.0709   -6.6212    0.9448 H   0  0  0  1  0  0  0  0  0  0  0  0
  1 34  1  0  0  0  0
  2  4  1  0  0  0  0
  3  4  1  0  0  0  0
  4  5  1  0  0  0  0
  4 32  1  0  0  0  0
  6 10  1  0  0  0  0
  6 26  1  0  0  0  0
  6 42  1  0  0  0  0
  7  8  1  0  0  0  0
  7  9  2  0  0  0  0
  7 13  1  0  0  0  0
  8 43  1  0  0  0  0
  8 44  1  0  0  0  0
  8 45  1  0  0  0  0
 10 46  1  0  0  0  0
 10 47  1  0  0  0  0
 10 48  1  0  0  0  0
 11 27  1  0  0  0  0
 11 49  1  0  0  0  0
 12 26  2  0  0  0  0
 13 23  1  0  0  0  0
 13 50  1  0  0  0  0
 14 41  1  0  0  0  0
 15 24  1  0  0  0  0
 15 32  4  0  0  0  0
 15 34  4  0  0  0  0
 16 41  2  0  0  0  0
 17 18  1  0  0  0  0
 17 20  1  0  0  0  0
 17 51  1  0  0  0  0
 17 52  1  0  0  0  0
 18 23  1  0  0  0  0
 18 53  1  0  0  0  0
 18 54  1  0  0  0  0
 19 21  4  0  0  0  0
 19 29  1  0  0  0  0
 19 32  4  0  0  0  0
 20 24  1  0  0  0  0
 20 55  1  0  0  0  0
 20 56  1  0  0  0  0
 21 25  1  0  0  0  0
 21 34  4  0  0  0  0
 22 27  1  0  0  0  0
 22 28  1  0  0  0  0
 22 57  1  0  0  0  0
 22 58  1  0  0  0  0
 23 26  1  0  0  0  0
 23 59  1  0  0  0  0
 24 60  1  0  0  0  0
 24 61  1  0  0  0  0
 25 35  1  0  0  0  0
 25 62  1  0  0  0  0
 25 63  1  0  0  0  0
 27 31  1  0  0  0  0
 27 64  1  0  0  0  0
 28 30  1  0  0  0  0
 28 65  1  0  0  0  0
 28 66  1  0  0  0  0
 29 31  2  0  0  0  0
 29 67  1  0  0  0  0
 30 33  1  0  0  0  0
 30 68  1  0  0  0  0
 30 69  1  0  0  0  0
 31 70  1  0  0  0  0
 33 38  1  0  0  0  0
 33 71  1  0  0  0  0
 33 72  1  0  0  0  0
 35 36  2  0  0  0  0
 35 73  1  0  0  0  0
 36 37  1  0  0  0  0
 36 74  1  0  0  0  0
 37 39  1  0  0  0  0
 37 75  1  0  0  0  0
 37 76  1  0  0  0  0
 38 77  1  0  0  0  0
 38 78  1  0  0  0  0
 38 79  1  0  0  0  0
 39 40  1  0  0  0  0
 39 80  1  0  0  0  0
 39 81  1  0  0  0  0
 40 41  1  0  0  0  0
 40 82  1  0  0  0  0
 40 83  1  0  0  0  0
M  END
> <ConfClashScore>
0 

> <ConfOneFourInteractionScore>
-0.985213 

> <ConfScore>
0.0369462 

> <ConfScorePBest>
0.00458703 

> <ConfTolerance>
1.75143 

$$$$
9548876
  PyMOL2.2          3D                             0

 83 83  0  0  0  0  0  0  0  0999 V2000
   -5.0090   -1.0380   -0.1099 H   0  0  0  1  0  0  0  0  0  0  0  0
   -2.8964    3.4460   -1.1374 H   0  0  0  1  0  0  0  0  0  0  0  0
   -2.4218    3.5417    0.5414 H   0  0  0  1  0  0  0  0  0  0  0  0
   -3.1721    3.1901   -0.1357 C   0  0  0  1  0  0  0  0  0  0  0  0
   -4.1104    3.6455    0.1032 H   0  0  0  1  0  0  0  0  0  0  0  0
   -8.5831    5.4780   -3.9686 N   0  0  0  1  0  0  0  0  0  0  0  0
   -9.5713    4.1557   -6.4691 C   0  0  0  1  0  0  0  0  0  0  0  0
   -9.2602    4.5347   -7.9113 C   0  0  0  1  0  0  0  0  0  0  0  0
  -10.6187    4.4747   -5.9374 O   0  0  0  1  0  0  0  0  0  0  0  0
   -8.9992    6.7085   -3.3124 C   0  0  0  1  0  0  0  0  0  0  0  0
    1.7571   -1.0713    1.0502 O   0  0  0  1  0  0  0  0  0  0  0  0
   -9.8493    4.1409   -2.6918 O   0  0  0  1  0  0  0  0  0  0  0  0
   -8.5986    3.4583   -5.8754 N   0  0  0  1  0  0  0  0  0  0  0  0
   -8.2953   -2.0187    2.4697 O   0  5  0  1  0  0  0  0  0  0  0  0
   -4.4729    1.0540   -0.2048 N   0  0  0  1  0  0  0  0  0  0  0  0
   -6.7476   -0.3905    2.1115 O   0  0  0  1  0  0  0  0  0  0  0  0
   -7.2101    2.3328   -2.5179 C   0  0  0  1  0  0  0  0  0  0  0  0
   -7.2834    2.5810   -4.0041 C   0  0  0  1  0  0  0  0  0  0  0  0
   -2.3246    0.7632    0.2856 C   0  0  0  1  0  0  0  0  0  0  0  0
   -5.8141    1.9697   -2.0353 C   0  0  0  1  0  0  0  0  0  0  0  0
   -2.9496   -0.4923    0.2783 C   0  0  0  1  0  0  0  0  0  0  0  0
    2.4120    0.3595   -0.7374 C   0  0  0  1  0  0  0  0  0  0  0  0
   -8.6550    3.0874   -4.4693 C   0  0  0  1  0  0  0  0  0  0  0  0
   -5.7463    1.6901   -0.5436 C   0  0  0  1  0  0  0  0  0  0  0  0
   -2.2847   -1.8199    0.5558 C   0  0  0  1  0  0  0  0  0  0  0  0
   -9.0590    4.2820   -3.6104 C   0  0  0  1  0  0  0  0  0  0  0  0
    1.4535    0.1734    0.4231 C   0  0  0  1  0  0  0  0  0  0  0  0
    1.8320    1.1888   -1.8705 C   0  0  0  1  0  0  0  0  0  0  0  0
   -0.9097    1.0153    0.5619 C   0  0  0  1  0  0  0  0  0  0  0  0
    2.8311    1.4827   -2.9729 C   0  0  0  1  0  0  0  0  0  0  0  0
    0.0152    0.2617    0.0220 C   0  0  0  1  0  0  0  0  0  0  0  0
   -3.2940    1.7099   -0.0160 C   0  0  0  1  0  0  0  0  0  0  0  0
    2.1752    2.2573   -4.1007 C   0  0  0  1  0  0  0  0  0  0  0  0
   -4.2825   -0.2983   -0.0279 C   0  0  0  1  0  0  0  0  0  0  0  0
   -1.9330   -2.0517    1.9910 C   0  0  0  1  0  0  0  0  0  0  0  0
   -2.7257   -1.8055    3.0066 C   0  0  0  1  0  0  0  0  0  0  0  0
   -4.1842   -1.4781    2.9529 C   0  0  0  1  0  0  0  0  0  0  0  0
    3.1043    2.7011   -5.2148 C   0  0  0  1  0  0  0  0  0  0  0  0
   -5.1007   -2.4606    3.6702 C   0  0  0  1  0  0  0  0  0  0  0  0
   -6.4780   -1.8914    3.9696 C   0  0  0  1  0  0  0  0  0  0  0  0
   -7.1553   -1.3376    2.7635 C   0  0  0  1  0  0  0  0  0  0  0  0
   -7.9312    5.5284   -4.6986 H   0  0  0  1  0  0  0  0  0  0  0  0
   -8.5547    5.3390   -7.9250 H   0  0  0  1  0  0  0  0  0  0  0  0
  -10.1605    4.8419   -8.4013 H   0  0  0  1  0  0  0  0  0  0  0  0
   -8.8469    3.6894   -8.4208 H   0  0  0  1  0  0  0  0  0  0  0  0
   -8.1397    7.2159   -2.9267 H   0  0  0  1  0  0  0  0  0  0  0  0
   -9.6663    6.4759   -2.5087 H   0  0  0  1  0  0  0  0  0  0  0  0
   -9.4976    7.3385   -4.0193 H   0  0  0  1  0  0  0  0  0  0  0  0
    0.9412   -1.5184    1.2868 H   0  0  0  1  0  0  0  0  0  0  0  0
   -7.8201    3.1870   -6.4052 H   0  0  0  1  0  0  0  0  0  0  0  0
   -7.8728    1.5285   -2.2752 H   0  0  0  1  0  0  0  0  0  0  0  0
   -7.5245    3.2203   -2.0097 H   0  0  0  1  0  0  0  0  0  0  0  0
   -7.0702    1.6638   -4.5122 H   0  0  0  1  0  0  0  0  0  0  0  0
   -6.5462    3.3122   -4.2627 H   0  0  0  1  0  0  0  0  0  0  0  0
   -5.1558    2.7832   -2.2583 H   0  0  0  1  0  0  0  0  0  0  0  0
   -5.4909    1.0947   -2.5595 H   0  0  0  1  0  0  0  0  0  0  0  0
    2.6713   -0.6050   -1.1213 H   0  0  0  1  0  0  0  0  0  0  0  0
    3.2922    0.8483   -0.3754 H   0  0  0  1  0  0  0  0  0  0  0  0
   -9.3729    2.3061   -4.3310 H   0  0  0  1  0  0  0  0  0  0  0  0
   -5.8343    2.6118   -0.0073 H   0  0  0  1  0  0  0  0  0  0  0  0
   -6.5501    1.0392   -0.2695 H   0  0  0  1  0  0  0  0  0  0  0  0
   -1.3845   -1.8692   -0.0206 H   0  0  0  1  0  0  0  0  0  0  0  0
   -2.9505   -2.5979    0.2455 H   0  0  0  1  0  0  0  0  0  0  0  0
    1.6407    0.9613    1.1223 H   0  0  0  1  0  0  0  0  0  0  0  0
    1.4871    2.1185   -1.4684 H   0  0  0  1  0  0  0  0  0  0  0  0
    1.0070    0.6548   -2.2939 H   0  0  0  1  0  0  0  0  0  0  0  0
   -0.6371    1.7976    1.1906 H   0  0  0  1  0  0  0  0  0  0  0  0
    3.2120    0.5594   -3.3565 H   0  0  0  1  0  0  0  0  0  0  0  0
    3.6363    2.0619   -2.5714 H   0  0  0  1  0  0  0  0  0  0  0  0
   -0.2826   -0.3409   -0.7716 H   0  0  0  1  0  0  0  0  0  0  0  0
    1.7231    3.1315   -3.6808 H   0  0  0  1  0  0  0  0  0  0  0  0
    1.4182    1.6354   -4.5310 H   0  0  0  1  0  0  0  0  0  0  0  0
   -0.9896   -2.4367    2.1991 H   0  0  0  1  0  0  0  0  0  0  0  0
   -2.2932   -1.8419    3.9517 H   0  0  0  1  0  0  0  0  0  0  0  0
   -4.4772   -1.4441    1.9244 H   0  0  0  1  0  0  0  0  0  0  0  0
   -4.3226   -0.5139    3.3958 H   0  0  0  1  0  0  0  0  0  0  0  0
    4.0640    2.2470   -5.0817 H   0  0  0  1  0  0  0  0  0  0  0  0
    3.2072    3.7658   -5.1901 H   0  0  0  1  0  0  0  0  0  0  0  0
    2.6969    2.4034   -6.1584 H   0  0  0  1  0  0  0  0  0  0  0  0
   -4.6408   -2.7402    4.5951 H   0  0  0  1  0  0  0  0  0  0  0  0
   -5.2183   -3.3270    3.0535 H   0  0  0  1  0  0  0  0  0  0  0  0
   -6.3734   -1.1083    4.6912 H   0  0  0  1  0  0  0  0  0  0  0  0
   -7.0881   -2.6714    4.3748 H   0  0  0  1  0  0  0  0  0  0  0  0
  1 34  1  0  0  0  0
  2  4  1  0  0  0  0
  3  4  1  0  0  0  0
  4  5  1  0  0  0  0
  4 32  1  0  0  0  0
  6 10  1  0  0  0  0
  6 26  1  0  0  0  0
  6 42  1  0  0  0  0
  7  8  1  0  0  0  0
  7  9  2  0  0  0  0
  7 13  1  0  0  0  0
  8 43  1  0  0  0  0
  8 44  1  0  0  0  0
  8 45  1  0  0  0  0
 10 46  1  0  0  0  0
 10 47  1  0  0  0  0
 10 48  1  0  0  0  0
 11 27  1  0  0  0  0
 11 49  1  0  0  0  0
 12 26  2  0  0  0  0
 13 23  1  0  0  0  0
 13 50  1  0  0  0  0
 14 41  1  0  0  0  0
 15 24  1  0  0  0  0
 15 32  4  0  0  0  0
 15 34  4  0  0  0  0
 16 41  2  0  0  0  0
 17 18  1  0  0  0  0
 17 20  1  0  0  0  0
 17 51  1  0  0  0  0
 17 52  1  0  0  0  0
 18 23  1  0  0  0  0
 18 53  1  0  0  0  0
 18 54  1  0  0  0  0
 19 21  4  0  0  0  0
 19 29  1  0  0  0  0
 19 32  4  0  0  0  0
 20 24  1  0  0  0  0
 20 55  1  0  0  0  0
 20 56  1  0  0  0  0
 21 25  1  0  0  0  0
 21 34  4  0  0  0  0
 22 27  1  0  0  0  0
 22 28  1  0  0  0  0
 22 57  1  0  0  0  0
 22 58  1  0  0  0  0
 23 26  1  0  0  0  0
 23 59  1  0  0  0  0
 24 60  1  0  0  0  0
 24 61  1  0  0  0  0
 25 35  1  0  0  0  0
 25 62  1  0  0  0  0
 25 63  1  0  0  0  0
 27 31  1  0  0  0  0
 27 64  1  0  0  0  0
 28 30  1  0  0  0  0
 28 65  1  0  0  0  0
 28 66  1  0  0  0  0
 29 31  2  0  0  0  0
 29 67  1  0  0  0  0
 30 33  1  0  0  0  0
 30 68  1  0  0  0  0
 30 69  1  0  0  0  0
 31 70  1  0  0  0  0
 33 38  1  0  0  0  0
 33 71  1  0  0  0  0
 33 72  1  0  0  0  0
 35 36  2  0  0  0  0
 35 73  1  0  0  0  0
 36 37  1  0  0  0  0
 36 74  1  0  0  0  0
 37 39  1  0  0  0  0
 37 75  1  0  0  0  0
 37 76  1  0  0  0  0
 38 77  1  0  0  0  0
 38 78  1  0  0  0  0
 38 79  1  0  0  0  0
 39 40  1  0  0  0  0
 39 80  1  0  0  0  0
 39 81  1  0  0  0  0
 40 41  1  0  0  0  0
 40 82  1  0  0  0  0
 40 83  1  0  0  0  0
M  END
> <ConfClashScore>
0 

> <ConfOneFourInteractionScore>
-0.984597 

> <ConfScore>
0.0370469 

> <ConfScorePBest>
0.00455855 

> <ConfTolerance>
1.98631 

$$$$
9548876
  PyMOL2.2          3D                             0

 83 83  0  0  0  0  0  0  0  0999 V2000
   -4.9976   -1.0500   -0.1091 H   0  0  0  1  0  0  0  0  0  0  0  0
   -2.4209    3.4270   -0.8519 H   0  0  0  1  0  0  0  0  0  0  0  0
   -2.9110    3.5991    0.8162 H   0  0  0  1  0  0  0  0  0  0  0  0
   -3.1764    3.1848   -0.1340 C   0  0  0  1  0  0  0  0  0  0  0  0
   -4.1136    3.5916   -0.4518 H   0  0  0  1  0  0  0  0  0  0  0  0
   -9.5683   -0.5786    4.0545 N   0  0  0  1  0  0  0  0  0  0  0  0
  -10.1041   -3.1222    3.2080 C   0  0  0  1  0  0  0  0  0  0  0  0
  -11.5031   -3.7003    3.1183 C   0  0  0  1  0  0  0  0  0  0  0  0
   -9.4004   -3.3070    4.1974 O   0  0  0  1  0  0  0  0  0  0  0  0
   -9.6003   -0.0397    5.4060 C   0  0  0  1  0  0  0  0  0  0  0  0
    1.6659    1.2827    1.6012 O   0  0  0  1  0  0  0  0  0  0  0  0
   -7.3843   -0.1547    3.6845 O   0  0  0  1  0  0  0  0  0  0  0  0
   -9.7020   -2.4117    2.1531 N   0  0  0  1  0  0  0  0  0  0  0  0
   -8.1689   -4.1642    1.3550 O   0  5  0  1  0  0  0  0  0  0  0  0
   -4.4693    1.0439   -0.2035 N   0  0  0  1  0  0  0  0  0  0  0  0
   -8.2333   -3.6327   -0.8393 O   0  0  0  1  0  0  0  0  0  0  0  0
   -7.2015    0.1436    0.7810 C   0  0  0  1  0  0  0  0  0  0  0  0
   -8.4073   -0.7620    0.8226 C   0  0  0  1  0  0  0  0  0  0  0  0
   -2.3198    0.7610    0.2865 C   0  0  0  1  0  0  0  0  0  0  0  0
   -6.9101    0.7844   -0.5672 C   0  0  0  1  0  0  0  0  0  0  0  0
   -2.9401   -0.4968    0.2790 C   0  0  0  1  0  0  0  0  0  0  0  0
    1.9366   -1.0558    0.9827 C   0  0  0  1  0  0  0  0  0  0  0  0
   -8.5149   -1.5705    2.1187 C   0  0  0  1  0  0  0  0  0  0  0  0
   -5.7182    1.7273   -0.5413 C   0  0  0  1  0  0  0  0  0  0  0  0
   -2.3250   -1.8501    0.5470 C   0  0  0  1  0  0  0  0  0  0  0  0
   -8.4367   -0.6738    3.3507 C   0  0  0  1  0  0  0  0  0  0  0  0
    1.4657    0.3440    0.5628 C   0  0  0  1  0  0  0  0  0  0  0  0
    3.4223   -1.1217    1.3016 C   0  0  0  1  0  0  0  0  0  0  0  0
   -0.9154    1.0730    0.5552 C   0  0  0  1  0  0  0  0  0  0  0  0
    3.8543   -2.4562    1.8852 C   0  0  0  1  0  0  0  0  0  0  0  0
    0.0344    0.2722    0.1345 C   0  0  0  1  0  0  0  0  0  0  0  0
   -3.2928    1.7042   -0.0147 C   0  0  0  1  0  0  0  0  0  0  0  0
    5.3171   -2.4303    2.2534 C   0  0  0  1  0  0  0  0  0  0  0  0
   -4.2738   -0.3077   -0.0270 C   0  0  0  1  0  0  0  0  0  0  0  0
   -2.5572   -2.3036    1.9279 C   0  0  0  1  0  0  0  0  0  0  0  0
   -3.7072   -2.8581    2.2191 C   0  0  0  1  0  0  0  0  0  0  0  0
   -4.8858   -3.0386    1.3003 C   0  0  0  1  0  0  0  0  0  0  0  0
    5.8591   -3.7093    2.8706 C   0  0  0  1  0  0  0  0  0  0  0  0
   -5.3513   -4.4708    1.2105 C   0  0  0  1  0  0  0  0  0  0  0  0
   -6.2971   -4.7771    0.0732 C   0  0  0  1  0  0  0  0  0  0  0  0
   -7.6408   -4.1339    0.1021 C   0  0  0  1  0  0  0  0  0  0  0  0
  -10.4060   -0.8824    3.6466 H   0  0  0  1  0  0  0  0  0  0  0  0
  -11.4435   -4.7561    2.9551 H   0  0  0  1  0  0  0  0  0  0  0  0
  -12.0262   -3.2429    2.3046 H   0  0  0  1  0  0  0  0  0  0  0  0
  -12.0267   -3.5098    4.0317 H   0  0  0  1  0  0  0  0  0  0  0  0
   -9.1709   -0.7481    6.0832 H   0  0  0  1  0  0  0  0  0  0  0  0
  -10.6139    0.1543    5.6885 H   0  0  0  1  0  0  0  0  0  0  0  0
   -9.0395    0.8709    5.4399 H   0  0  0  1  0  0  0  0  0  0  0  0
    2.4677    1.0633    2.0814 H   0  0  0  1  0  0  0  0  0  0  0  0
  -10.2469   -2.4599    1.3400 H   0  0  0  1  0  0  0  0  0  0  0  0
   -6.3459   -0.4336    1.0633 H   0  0  0  1  0  0  0  0  0  0  0  0
   -7.3538    0.9280    1.4927 H   0  0  0  1  0  0  0  0  0  0  0  0
   -8.3474   -1.4446    0.0009 H   0  0  0  1  0  0  0  0  0  0  0  0
   -9.2868   -0.1606    0.7240 H   0  0  0  1  0  0  0  0  0  0  0  0
   -7.7735    1.3373   -0.8737 H   0  0  0  1  0  0  0  0  0  0  0  0
   -6.7130    0.0079   -1.2764 H   0  0  0  1  0  0  0  0  0  0  0  0
    1.7305   -1.7369    0.1836 H   0  0  0  1  0  0  0  0  0  0  0  0
    1.3893   -1.3507    1.8535 H   0  0  0  1  0  0  0  0  0  0  0  0
   -7.6610   -2.2145    2.1511 H   0  0  0  1  0  0  0  0  0  0  0  0
   -5.6138    2.1746   -1.5077 H   0  0  0  1  0  0  0  0  0  0  0  0
   -5.8999    2.4896    0.1873 H   0  0  0  1  0  0  0  0  0  0  0  0
   -1.2703   -1.7885    0.3776 H   0  0  0  1  0  0  0  0  0  0  0  0
   -2.7539   -2.5627   -0.1262 H   0  0  0  1  0  0  0  0  0  0  0  0
    2.0447    0.6361   -0.2882 H   0  0  0  1  0  0  0  0  0  0  0  0
    3.6521   -0.3520    2.0084 H   0  0  0  1  0  0  0  0  0  0  0  0
    3.9709   -0.9528    0.3986 H   0  0  0  1  0  0  0  0  0  0  0  0
   -0.6691    1.9348    1.0827 H   0  0  0  1  0  0  0  0  0  0  0  0
    3.6884   -3.2261    1.1608 H   0  0  0  1  0  0  0  0  0  0  0  0
    3.2754   -2.6597    2.7617 H   0  0  0  1  0  0  0  0  0  0  0  0
   -0.2271   -0.4680   -0.5477 H   0  0  0  1  0  0  0  0  0  0  0  0
    5.4662   -1.6367    2.9555 H   0  0  0  1  0  0  0  0  0  0  0  0
    5.8773   -2.2304    1.3640 H   0  0  0  1  0  0  0  0  0  0  0  0
   -1.8242   -2.1863    2.6562 H   0  0  0  1  0  0  0  0  0  0  0  0
   -3.8183   -3.2122    3.1907 H   0  0  0  1  0  0  0  0  0  0  0  0
   -4.6078   -2.7089    0.3210 H   0  0  0  1  0  0  0  0  0  0  0  0
   -5.6950   -2.4395    1.6625 H   0  0  0  1  0  0  0  0  0  0  0  0
    5.7763   -3.6547    3.9360 H   0  0  0  1  0  0  0  0  0  0  0  0
    6.8871   -3.8284    2.5986 H   0  0  0  1  0  0  0  0  0  0  0  0
    5.2955   -4.5449    2.5116 H   0  0  0  1  0  0  0  0  0  0  0  0
   -5.8479   -4.7139    2.1266 H   0  0  0  1  0  0  0  0  0  0  0  0
   -4.4873   -5.0916    1.0970 H   0  0  0  1  0  0  0  0  0  0  0  0
   -6.4493   -5.8361    0.0597 H   0  0  0  1  0  0  0  0  0  0  0  0
   -5.8164   -4.4738   -0.8334 H   0  0  0  1  0  0  0  0  0  0  0  0
  1 34  1  0  0  0  0
  2  4  1  0  0  0  0
  3  4  1  0  0  0  0
  4  5  1  0  0  0  0
  4 32  1  0  0  0  0
  6 10  1  0  0  0  0
  6 26  1  0  0  0  0
  6 42  1  0  0  0  0
  7  8  1  0  0  0  0
  7  9  2  0  0  0  0
  7 13  1  0  0  0  0
  8 43  1  0  0  0  0
  8 44  1  0  0  0  0
  8 45  1  0  0  0  0
 10 46  1  0  0  0  0
 10 47  1  0  0  0  0
 10 48  1  0  0  0  0
 11 27  1  0  0  0  0
 11 49  1  0  0  0  0
 12 26  2  0  0  0  0
 13 23  1  0  0  0  0
 13 50  1  0  0  0  0
 14 41  1  0  0  0  0
 15 24  1  0  0  0  0
 15 32  4  0  0  0  0
 15 34  4  0  0  0  0
 16 41  2  0  0  0  0
 17 18  1  0  0  0  0
 17 20  1  0  0  0  0
 17 51  1  0  0  0  0
 17 52  1  0  0  0  0
 18 23  1  0  0  0  0
 18 53  1  0  0  0  0
 18 54  1  0  0  0  0
 19 21  4  0  0  0  0
 19 29  1  0  0  0  0
 19 32  4  0  0  0  0
 20 24  1  0  0  0  0
 20 55  1  0  0  0  0
 20 56  1  0  0  0  0
 21 25  1  0  0  0  0
 21 34  4  0  0  0  0
 22 27  1  0  0  0  0
 22 28  1  0  0  0  0
 22 57  1  0  0  0  0
 22 58  1  0  0  0  0
 23 26  1  0  0  0  0
 23 59  1  0  0  0  0
 24 60  1  0  0  0  0
 24 61  1  0  0  0  0
 25 35  1  0  0  0  0
 25 62  1  0  0  0  0
 25 63  1  0  0  0  0
 27 31  1  0  0  0  0
 27 64  1  0  0  0  0
 28 30  1  0  0  0  0
 28 65  1  0  0  0  0
 28 66  1  0  0  0  0
 29 31  2  0  0  0  0
 29 67  1  0  0  0  0
 30 33  1  0  0  0  0
 30 68  1  0  0  0  0
 30 69  1  0  0  0  0
 31 70  1  0  0  0  0
 33 38  1  0  0  0  0
 33 71  1  0  0  0  0
 33 72  1  0  0  0  0
 35 36  2  0  0  0  0
 35 73  1  0  0  0  0
 36 37  1  0  0  0  0
 36 74  1  0  0  0  0
 37 39  1  0  0  0  0
 37 75  1  0  0  0  0
 37 76  1  0  0  0  0
 38 77  1  0  0  0  0
 38 78  1  0  0  0  0
 38 79  1  0  0  0  0
 39 40  1  0  0  0  0
 39 80  1  0  0  0  0
 39 81  1  0  0  0  0
 40 41  1  0  0  0  0
 40 82  1  0  0  0  0
 40 83  1  0  0  0  0
M  END
> <ConfClashScore>
0 

> <ConfOneFourInteractionScore>
-0.983008 

> <ConfScore>
0.0382529 

> <ConfScorePBest>
0.00453007 

> <ConfTolerance>
2.20041 

$$$$
9548876
  PyMOL2.2          3D                             0

 83 83  0  0  0  0  0  0  0  0999 V2000
   -4.9973   -1.0322   -0.1041 H   0  0  0  1  0  0  0  0  0  0  0  0
   -3.9339    3.6422    0.4778 H   0  0  0  1  0  0  0  0  0  0  0  0
   -3.3576    3.4653   -1.1621 H   0  0  0  1  0  0  0  0  0  0  0  0
   -3.1891    3.1886   -0.1423 C   0  0  0  1  0  0  0  0  0  0  0  0
   -2.2195    3.5226    0.1629 H   0  0  0  1  0  0  0  0  0  0  0  0
   -9.6000   -1.4064   -5.9526 N   0  0  0  1  0  0  0  0  0  0  0  0
   -6.0706   -2.4313   -4.0716 C   0  0  0  1  0  0  0  0  0  0  0  0
   -4.9790   -3.3556   -4.6256 C   0  0  0  1  0  0  0  0  0  0  0  0
   -6.2340   -2.3379   -2.8662 O   0  0  0  1  0  0  0  0  0  0  0  0
  -10.5367   -1.2979   -7.0611 C   0  0  0  1  0  0  0  0  0  0  0  0
    1.2189    3.6946    0.4165 O   0  0  0  1  0  0  0  0  0  0  0  0
   -8.7250    0.6584   -6.1928 O   0  0  0  1  0  0  0  0  0  0  0  0
   -6.7482   -1.6924   -4.9645 N   0  0  0  1  0  0  0  0  0  0  0  0
    4.9250   -4.0607    0.0385 O   0  5  0  1  0  0  0  0  0  0  0  0
   -4.4499    1.0568   -0.1997 N   0  0  0  1  0  0  0  0  0  0  0  0
    3.9654   -1.9863    0.3220 O   0  0  0  1  0  0  0  0  0  0  0  0
   -6.7527    0.4330   -2.5138 C   0  0  0  1  0  0  0  0  0  0  0  0
   -7.1336    0.5256   -3.9706 C   0  0  0  1  0  0  0  0  0  0  0  0
   -2.3034    0.7547    0.2917 C   0  0  0  1  0  0  0  0  0  0  0  0
   -6.0744    1.6574   -2.0013 C   0  0  0  1  0  0  0  0  0  0  0  0
   -2.9351   -0.4974    0.2848 C   0  0  0  1  0  0  0  0  0  0  0  0
    1.0576    3.1001    2.7605 C   0  0  0  1  0  0  0  0  0  0  0  0
   -7.7689   -0.7576   -4.5149 C   0  0  0  1  0  0  0  0  0  0  0  0
   -5.7198    1.6996   -0.5394 C   0  0  0  1  0  0  0  0  0  0  0  0
   -2.3325   -1.8560    0.5541 C   0  0  0  1  0  0  0  0  0  0  0  0
   -8.7284   -0.4378   -5.6573 C   0  0  0  1  0  0  0  0  0  0  0  0
    0.9026    2.6368    1.3021 C   0  0  0  1  0  0  0  0  0  0  0  0
    2.4715    3.4563    3.1868 C   0  0  0  1  0  0  0  0  0  0  0  0
   -0.9013    1.0532    0.5600 C   0  0  0  1  0  0  0  0  0  0  0  0
    2.5439    4.0439    4.5313 C   0  0  0  1  0  0  0  0  0  0  0  0
   -0.5070    2.1851    1.0873 C   0  0  0  1  0  0  0  0  0  0  0  0
   -3.2677    1.7065   -0.0108 C   0  0  0  1  0  0  0  0  0  0  0  0
    3.8920    4.4422    5.1121 C   0  0  0  1  0  0  0  0  0  0  0  0
   -4.2668   -0.2964   -0.0221 C   0  0  0  1  0  0  0  0  0  0  0  0
   -1.7624   -2.0163    1.9006 C   0  0  0  1  0  0  0  0  0  0  0  0
   -0.6630   -2.5373    2.3851 C   0  0  0  1  0  0  0  0  0  0  0  0
    0.2899   -3.4486    1.6789 C   0  0  0  1  0  0  0  0  0  0  0  0
    3.7282    5.0144    6.5108 C   0  0  0  1  0  0  0  0  0  0  0  0
    1.6173   -2.8230    1.2825 C   0  0  0  1  0  0  0  0  0  0  0  0
    2.6023   -3.8207    0.6954 C   0  0  0  1  0  0  0  0  0  0  0  0
    3.9091   -3.2050    0.3305 C   0  0  0  1  0  0  0  0  0  0  0  0
   -9.6089   -2.2181   -5.4037 H   0  0  0  1  0  0  0  0  0  0  0  0
   -5.4334   -4.1825   -5.1302 H   0  0  0  1  0  0  0  0  0  0  0  0
   -4.3758   -3.7179   -3.8195 H   0  0  0  1  0  0  0  0  0  0  0  0
   -4.3664   -2.8113   -5.3135 H   0  0  0  1  0  0  0  0  0  0  0  0
  -10.0284   -1.5045   -7.9798 H   0  0  0  1  0  0  0  0  0  0  0  0
  -10.9394   -0.3070   -7.0917 H   0  0  0  1  0  0  0  0  0  0  0  0
  -11.3308   -2.0023   -6.9270 H   0  0  0  1  0  0  0  0  0  0  0  0
    0.6729    4.4574    0.6205 H   0  0  0  1  0  0  0  0  0  0  0  0
   -6.5550   -1.7828   -5.9210 H   0  0  0  1  0  0  0  0  0  0  0  0
   -6.0916   -0.3988   -2.3882 H   0  0  0  1  0  0  0  0  0  0  0  0
   -7.6417    0.2725   -1.9403 H   0  0  0  1  0  0  0  0  0  0  0  0
   -6.2517    0.7352   -4.5391 H   0  0  0  1  0  0  0  0  0  0  0  0
   -7.8330    1.3268   -4.0881 H   0  0  0  1  0  0  0  0  0  0  0  0
   -6.7212    2.4870   -2.1974 H   0  0  0  1  0  0  0  0  0  0  0  0
   -5.1657    1.7745   -2.5541 H   0  0  0  1  0  0  0  0  0  0  0  0
    0.7107    2.3117    3.3953 H   0  0  0  1  0  0  0  0  0  0  0  0
    0.4439    3.9658    2.8982 H   0  0  0  1  0  0  0  0  0  0  0  0
   -8.3315   -1.2093   -3.7249 H   0  0  0  1  0  0  0  0  0  0  0  0
   -5.6649    2.7252   -0.2393 H   0  0  0  1  0  0  0  0  0  0  0  0
   -6.4982    1.2088    0.0066 H   0  0  0  1  0  0  0  0  0  0  0  0
   -1.5535   -2.0231   -0.1601 H   0  0  0  1  0  0  0  0  0  0  0  0
   -3.0983   -2.5922    0.4262 H   0  0  0  1  0  0  0  0  0  0  0  0
    1.5586    1.8077    1.1370 H   0  0  0  1  0  0  0  0  0  0  0  0
    2.8695    4.1609    2.4868 H   0  0  0  1  0  0  0  0  0  0  0  0
    3.0644    2.5657    3.1734 H   0  0  0  1  0  0  0  0  0  0  0  0
   -0.1850    0.3374    0.3228 H   0  0  0  1  0  0  0  0  0  0  0  0
    2.1156    3.3306    5.2041 H   0  0  0  1  0  0  0  0  0  0  0  0
    1.9405    4.9274    4.5158 H   0  0  0  1  0  0  0  0  0  0  0  0
   -1.2552    2.8413    1.3894 H   0  0  0  1  0  0  0  0  0  0  0  0
    4.3415    5.1805    4.4814 H   0  0  0  1  0  0  0  0  0  0  0  0
    4.5231    3.5793    5.1578 H   0  0  0  1  0  0  0  0  0  0  0  0
   -2.3769   -1.6237    2.6421 H   0  0  0  1  0  0  0  0  0  0  0  0
   -0.4267   -2.2905    3.3674 H   0  0  0  1  0  0  0  0  0  0  0  0
   -0.1881   -3.8004    0.7886 H   0  0  0  1  0  0  0  0  0  0  0  0
    0.4952   -4.2765    2.3251 H   0  0  0  1  0  0  0  0  0  0  0  0
    2.9443    5.7427    6.5091 H   0  0  0  1  0  0  0  0  0  0  0  0
    4.6436    5.4766    6.8162 H   0  0  0  1  0  0  0  0  0  0  0  0
    3.4813    4.2266    7.1915 H   0  0  0  1  0  0  0  0  0  0  0  0
    2.0581   -2.3828    2.1525 H   0  0  0  1  0  0  0  0  0  0  0  0
    1.4296   -2.0625    0.5535 H   0  0  0  1  0  0  0  0  0  0  0  0
    2.1698   -4.2486   -0.1848 H   0  0  0  1  0  0  0  0  0  0  0  0
    2.7783   -4.5906    1.4174 H   0  0  0  1  0  0  0  0  0  0  0  0
  1 34  1  0  0  0  0
  2  4  1  0  0  0  0
  3  4  1  0  0  0  0
  4  5  1  0  0  0  0
  4 32  1  0  0  0  0
  6 10  1  0  0  0  0
  6 26  1  0  0  0  0
  6 42  1  0  0  0  0
  7  8  1  0  0  0  0
  7  9  2  0  0  0  0
  7 13  1  0  0  0  0
  8 43  1  0  0  0  0
  8 44  1  0  0  0  0
  8 45  1  0  0  0  0
 10 46  1  0  0  0  0
 10 47  1  0  0  0  0
 10 48  1  0  0  0  0
 11 27  1  0  0  0  0
 11 49  1  0  0  0  0
 12 26  2  0  0  0  0
 13 23  1  0  0  0  0
 13 50  1  0  0  0  0
 14 41  1  0  0  0  0
 15 24  1  0  0  0  0
 15 32  4  0  0  0  0
 15 34  4  0  0  0  0
 16 41  2  0  0  0  0
 17 18  1  0  0  0  0
 17 20  1  0  0  0  0
 17 51  1  0  0  0  0
 17 52  1  0  0  0  0
 18 23  1  0  0  0  0
 18 53  1  0  0  0  0
 18 54  1  0  0  0  0
 19 21  4  0  0  0  0
 19 29  1  0  0  0  0
 19 32  4  0  0  0  0
 20 24  1  0  0  0  0
 20 55  1  0  0  0  0
 20 56  1  0  0  0  0
 21 25  1  0  0  0  0
 21 34  4  0  0  0  0
 22 27  1  0  0  0  0
 22 28  1  0  0  0  0
 22 57  1  0  0  0  0
 22 58  1  0  0  0  0
 23 26  1  0  0  0  0
 23 59  1  0  0  0  0
 24 60  1  0  0  0  0
 24 61  1  0  0  0  0
 25 35  1  0  0  0  0
 25 62  1  0  0  0  0
 25 63  1  0  0  0  0
 27 31  1  0  0  0  0
 27 64  1  0  0  0  0
 28 30  1  0  0  0  0
 28 65  1  0  0  0  0
 28 66  1  0  0  0  0
 29 31  2  0  0  0  0
 29 67  1  0  0  0  0
 30 33  1  0  0  0  0
 30 68  1  0  0  0  0
 30 69  1  0  0  0  0
 31 70  1  0  0  0  0
 33 38  1  0  0  0  0
 33 71  1  0  0  0  0
 33 72  1  0  0  0  0
 35 36  2  0  0  0  0
 35 73  1  0  0  0  0
 36 37  1  0  0  0  0
 36 74  1  0  0  0  0
 37 39  1  0  0  0  0
 37 75  1  0  0  0  0
 37 76  1  0  0  0  0
 38 77  1  0  0  0  0
 38 78  1  0  0  0  0
 38 79  1  0  0  0  0
 39 40  1  0  0  0  0
 39 80  1  0  0  0  0
 39 81  1  0  0  0  0
 40 41  1  0  0  0  0
 40 82  1  0  0  0  0
 40 83  1  0  0  0  0
M  END
> <ConfClashScore>
0 

> <ConfOneFourInteractionScore>
-0.991556 

> <ConfScore>
0.038989 

> <ConfScorePBest>
0.00450159 

> <ConfTolerance>
1.91265 

$$$$
9548876
  PyMOL2.2          3D                             0

 83 83  0  0  0  0  0  0  0  0999 V2000
   -5.0079   -1.0384   -0.1051 H   0  0  0  1  0  0  0  0  0  0  0  0
   -3.9686    3.5648   -0.7484 H   0  0  0  1  0  0  0  0  0  0  0  0
   -2.2335    3.4348   -0.5901 H   0  0  0  1  0  0  0  0  0  0  0  0
   -3.1725    3.1902   -0.1393 C   0  0  0  1  0  0  0  0  0  0  0  0
   -3.2284    3.6340    0.8327 H   0  0  0  1  0  0  0  0  0  0  0  0
   -7.8758    4.9187   -4.3617 N   0  0  0  1  0  0  0  0  0  0  0  0
  -10.9206    1.7190   -2.8753 C   0  0  0  1  0  0  0  0  0  0  0  0
  -12.0777    0.8239   -3.3227 C   0  0  0  1  0  0  0  0  0  0  0  0
  -10.8781    2.0577   -1.6933 O   0  0  0  1  0  0  0  0  0  0  0  0
   -7.4083    5.8325   -5.3934 C   0  0  0  1  0  0  0  0  0  0  0  0
    2.1414    1.4353   -1.0598 O   0  0  0  1  0  0  0  0  0  0  0  0
   -8.4638    3.2663   -5.7796 O   0  0  0  1  0  0  0  0  0  0  0  0
  -10.0208    2.0851   -3.7855 N   0  0  0  1  0  0  0  0  0  0  0  0
   -8.4995   -5.3787    1.3675 O   0  5  0  1  0  0  0  0  0  0  0  0
   -4.4726    1.0535   -0.2040 N   0  0  0  1  0  0  0  0  0  0  0  0
   -8.1284   -5.3073   -0.8757 O   0  0  0  1  0  0  0  0  0  0  0  0
   -8.0747    1.4120   -1.4959 C   0  0  0  1  0  0  0  0  0  0  0  0
   -7.7522    2.0124   -2.8417 C   0  0  0  1  0  0  0  0  0  0  0  0
   -2.3240    0.7645    0.2862 C   0  0  0  1  0  0  0  0  0  0  0  0
   -6.8528    0.7285   -0.9040 C   0  0  0  1  0  0  0  0  0  0  0  0
   -2.9486   -0.4913    0.2815 C   0  0  0  1  0  0  0  0  0  0  0  0
    1.7441    3.2931    0.3883 C   0  0  0  1  0  0  0  0  0  0  0  0
   -8.8398    2.9019   -3.4429 C   0  0  0  1  0  0  0  0  0  0  0  0
   -5.7464    1.6886   -0.5436 C   0  0  0  1  0  0  0  0  0  0  0  0
   -2.2812   -1.8220    0.5620 C   0  0  0  1  0  0  0  0  0  0  0  0
   -8.3991    3.7238   -4.6505 C   0  0  0  1  0  0  0  0  0  0  0  0
    1.3621    1.8451    0.0635 C   0  0  0  1  0  0  0  0  0  0  0  0
    3.2344    3.5251    0.4227 C   0  0  0  1  0  0  0  0  0  0  0  0
   -0.9145    1.0166    0.5605 C   0  0  0  1  0  0  0  0  0  0  0  0
    3.9900    2.7688    1.5046 C   0  0  0  1  0  0  0  0  0  0  0  0
   -0.1070    1.7409   -0.1844 C   0  0  0  1  0  0  0  0  0  0  0  0
   -3.2939    1.7103   -0.0169 C   0  0  0  1  0  0  0  0  0  0  0  0
    5.4794    3.0064    1.4712 C   0  0  0  1  0  0  0  0  0  0  0  0
   -4.2816   -0.2983   -0.0247 C   0  0  0  1  0  0  0  0  0  0  0  0
   -2.3542   -2.6878   -0.6555 C   0  0  0  1  0  0  0  0  0  0  0  0
   -2.9640   -3.8476   -0.7155 C   0  0  0  1  0  0  0  0  0  0  0  0
   -3.9527   -4.4039    0.2718 C   0  0  0  1  0  0  0  0  0  0  0  0
    6.2843    2.2626    2.5245 C   0  0  0  1  0  0  0  0  0  0  0  0
   -5.3664   -4.4823   -0.2811 C   0  0  0  1  0  0  0  0  0  0  0  0
   -6.2578   -5.3062    0.6338 C   0  0  0  1  0  0  0  0  0  0  0  0
   -7.7018   -5.3294    0.2671 C   0  0  0  1  0  0  0  0  0  0  0  0
   -7.8041    5.1892   -3.4225 H   0  0  0  1  0  0  0  0  0  0  0  0
  -11.6881   -0.0743   -3.7545 H   0  0  0  1  0  0  0  0  0  0  0  0
  -12.6684    1.3416   -4.0492 H   0  0  0  1  0  0  0  0  0  0  0  0
  -12.6858    0.5783   -2.4772 H   0  0  0  1  0  0  0  0  0  0  0  0
   -7.5821    5.4019   -6.3574 H   0  0  0  1  0  0  0  0  0  0  0  0
   -6.3607    6.0088   -5.2653 H   0  0  0  1  0  0  0  0  0  0  0  0
   -7.9384    6.7587   -5.3159 H   0  0  0  1  0  0  0  0  0  0  0  0
    1.5743    1.3515   -1.8299 H   0  0  0  1  0  0  0  0  0  0  0  0
  -10.1468    1.8026   -4.7154 H   0  0  0  1  0  0  0  0  0  0  0  0
   -8.8579    0.6921   -1.6114 H   0  0  0  1  0  0  0  0  0  0  0  0
   -8.3978    2.1880   -0.8338 H   0  0  0  1  0  0  0  0  0  0  0  0
   -7.5678    1.2099   -3.5250 H   0  0  0  1  0  0  0  0  0  0  0  0
   -6.8656    2.6020   -2.7356 H   0  0  0  1  0  0  0  0  0  0  0  0
   -6.4751    0.0291   -1.6203 H   0  0  0  1  0  0  0  0  0  0  0  0
   -7.1513    0.2070   -0.0187 H   0  0  0  1  0  0  0  0  0  0  0  0
    1.3395    3.5439    1.3466 H   0  0  0  1  0  0  0  0  0  0  0  0
    1.3185    3.9316   -0.3573 H   0  0  0  1  0  0  0  0  0  0  0  0
   -9.1340    3.5946   -2.6822 H   0  0  0  1  0  0  0  0  0  0  0  0
   -5.5831    2.3375   -1.3786 H   0  0  0  1  0  0  0  0  0  0  0  0
   -6.0666    2.2648    0.2992 H   0  0  0  1  0  0  0  0  0  0  0  0
   -2.7817   -2.3069    1.3739 H   0  0  0  1  0  0  0  0  0  0  0  0
   -1.2560   -1.6582    0.8210 H   0  0  0  1  0  0  0  0  0  0  0  0
    1.6054    1.2374    0.9099 H   0  0  0  1  0  0  0  0  0  0  0  0
    3.4016    4.5711    0.5738 H   0  0  0  1  0  0  0  0  0  0  0  0
    3.6354    3.2325   -0.5252 H   0  0  0  1  0  0  0  0  0  0  0  0
   -0.5129    0.5873    1.4183 H   0  0  0  1  0  0  0  0  0  0  0  0
    3.8104    1.7219    1.3750 H   0  0  0  1  0  0  0  0  0  0  0  0
    3.6181    3.0796    2.4585 H   0  0  0  1  0  0  0  0  0  0  0  0
   -0.5118    2.2667   -0.9852 H   0  0  0  1  0  0  0  0  0  0  0  0
    5.6490    4.0542    1.6059 H   0  0  0  1  0  0  0  0  0  0  0  0
    5.8394    2.7070    0.5091 H   0  0  0  1  0  0  0  0  0  0  0  0
   -1.8868   -2.3447   -1.5188 H   0  0  0  1  0  0  0  0  0  0  0  0
   -2.7393   -4.4477   -1.5347 H   0  0  0  1  0  0  0  0  0  0  0  0
   -3.9600   -3.7751    1.1376 H   0  0  0  1  0  0  0  0  0  0  0  0
   -3.6402   -5.3891    0.5486 H   0  0  0  1  0  0  0  0  0  0  0  0
    6.2093    1.2091    2.3533 H   0  0  0  1  0  0  0  0  0  0  0  0
    5.9001    2.4942    3.4959 H   0  0  0  1  0  0  0  0  0  0  0  0
    7.3101    2.5611    2.4656 H   0  0  0  1  0  0  0  0  0  0  0  0
   -5.3399   -4.9382   -1.2487 H   0  0  0  1  0  0  0  0  0  0  0  0
   -5.7664   -3.4933   -0.3631 H   0  0  0  1  0  0  0  0  0  0  0  0
   -6.1749   -4.9065    1.6229 H   0  0  0  1  0  0  0  0  0  0  0  0
   -5.8987   -6.3140    0.6245 H   0  0  0  1  0  0  0  0  0  0  0  0
  1 34  1  0  0  0  0
  2  4  1  0  0  0  0
  3  4  1  0  0  0  0
  4  5  1  0  0  0  0
  4 32  1  0  0  0  0
  6 10  1  0  0  0  0
  6 26  1  0  0  0  0
  6 42  1  0  0  0  0
  7  8  1  0  0  0  0
  7  9  2  0  0  0  0
  7 13  1  0  0  0  0
  8 43  1  0  0  0  0
  8 44  1  0  0  0  0
  8 45  1  0  0  0  0
 10 46  1  0  0  0  0
 10 47  1  0  0  0  0
 10 48  1  0  0  0  0
 11 27  1  0  0  0  0
 11 49  1  0  0  0  0
 12 26  2  0  0  0  0
 13 23  1  0  0  0  0
 13 50  1  0  0  0  0
 14 41  1  0  0  0  0
 15 24  1  0  0  0  0
 15 32  4  0  0  0  0
 15 34  4  0  0  0  0
 16 41  2  0  0  0  0
 17 18  1  0  0  0  0
 17 20  1  0  0  0  0
 17 51  1  0  0  0  0
 17 52  1  0  0  0  0
 18 23  1  0  0  0  0
 18 53  1  0  0  0  0
 18 54  1  0  0  0  0
 19 21  4  0  0  0  0
 19 29  1  0  0  0  0
 19 32  4  0  0  0  0
 20 24  1  0  0  0  0
 20 55  1  0  0  0  0
 20 56  1  0  0  0  0
 21 25  1  0  0  0  0
 21 34  4  0  0  0  0
 22 27  1  0  0  0  0
 22 28  1  0  0  0  0
 22 57  1  0  0  0  0
 22 58  1  0  0  0  0
 23 26  1  0  0  0  0
 23 59  1  0  0  0  0
 24 60  1  0  0  0  0
 24 61  1  0  0  0  0
 25 35  1  0  0  0  0
 25 62  1  0  0  0  0
 25 63  1  0  0  0  0
 27 31  1  0  0  0  0
 27 64  1  0  0  0  0
 28 30  1  0  0  0  0
 28 65  1  0  0  0  0
 28 66  1  0  0  0  0
 29 31  2  0  0  0  0
 29 67  1  0  0  0  0
 30 33  1  0  0  0  0
 30 68  1  0  0  0  0
 30 69  1  0  0  0  0
 31 70  1  0  0  0  0
 33 38  1  0  0  0  0
 33 71  1  0  0  0  0
 33 72  1  0  0  0  0
 35 36  2  0  0  0  0
 35 73  1  0  0  0  0
 36 37  1  0  0  0  0
 36 74  1  0  0  0  0
 37 39  1  0  0  0  0
 37 75  1  0  0  0  0
 37 76  1  0  0  0  0
 38 77  1  0  0  0  0
 38 78  1  0  0  0  0
 38 79  1  0  0  0  0
 39 40  1  0  0  0  0
 39 80  1  0  0  0  0
 39 81  1  0  0  0  0
 40 41  1  0  0  0  0
 40 82  1  0  0  0  0
 40 83  1  0  0  0  0
M  END
> <ConfClashScore>
0 

> <ConfOneFourInteractionScore>
-0.994107 

> <ConfScore>
0.0464174 

> <ConfScorePBest>
0.00447311 

> <ConfTolerance>
1.82414 

$$$$
9548876
  PyMOL2.2          3D                             0

 83 83  0  0  0  0  0  0  0  0999 V2000
   -4.9959   -1.0285   -0.1280 H   0  0  0  1  0  0  0  0  0  0  0  0
   -2.2011    3.4601   -0.5008 H   0  0  0  1  0  0  0  0  0  0  0  0
   -3.3072    3.6438    0.8391 H   0  0  0  1  0  0  0  0  0  0  0  0
   -3.1706    3.2046   -0.1270 C   0  0  0  1  0  0  0  0  0  0  0  0
   -3.9193    3.5740   -0.7963 H   0  0  0  1  0  0  0  0  0  0  0  0
   -8.7754    4.7771   -3.7926 N   0  0  0  1  0  0  0  0  0  0  0  0
  -10.7585    2.3010   -6.0111 C   0  0  0  1  0  0  0  0  0  0  0  0
  -10.7864    2.3973   -7.5376 C   0  0  0  1  0  0  0  0  0  0  0  0
  -11.7456    1.9088   -5.3902 O   0  0  0  1  0  0  0  0  0  0  0  0
   -8.7761    6.0384   -3.0666 C   0  0  0  1  0  0  0  0  0  0  0  0
    1.3845    0.8987    1.8305 O   0  0  0  1  0  0  0  0  0  0  0  0
  -10.3082    3.8911   -2.3954 O   0  0  0  1  0  0  0  0  0  0  0  0
   -9.5727    2.5873   -5.4524 N   0  0  0  1  0  0  0  0  0  0  0  0
    0.5544   -2.7453    3.1232 O   0  5  0  1  0  0  0  0  0  0  0  0
   -4.4661    1.0657   -0.2074 N   0  0  0  1  0  0  0  0  0  0  0  0
   -0.9144   -2.1798    4.7656 O   0  0  0  1  0  0  0  0  0  0  0  0
   -7.5762    1.9083   -2.3071 C   0  0  0  1  0  0  0  0  0  0  0  0
   -7.9025    1.9227   -3.7881 C   0  0  0  1  0  0  0  0  0  0  0  0
   -2.3140    0.7765    0.2674 C   0  0  0  1  0  0  0  0  0  0  0  0
   -6.1098    1.6379   -2.0162 C   0  0  0  1  0  0  0  0  0  0  0  0
   -2.9357   -0.4807    0.2527 C   0  0  0  1  0  0  0  0  0  0  0  0
    2.2380    2.2672    0.0259 C   0  0  0  1  0  0  0  0  0  0  0  0
   -9.3288    2.4361   -4.0257 C   0  0  0  1  0  0  0  0  0  0  0  0
   -5.7866    1.6051   -0.5333 C   0  0  0  1  0  0  0  0  0  0  0  0
   -2.3249   -1.8167    0.6041 C   0  0  0  1  0  0  0  0  0  0  0  0
   -9.5021    3.7686   -3.3029 C   0  0  0  1  0  0  0  0  0  0  0  0
    1.1792    2.1158    1.1293 C   0  0  0  1  0  0  0  0  0  0  0  0
    3.6579    2.3297    0.5589 C   0  0  0  1  0  0  0  0  0  0  0  0
   -0.8937    0.9680    0.5440 C   0  0  0  1  0  0  0  0  0  0  0  0
    4.0667    3.7175    1.0225 C   0  0  0  1  0  0  0  0  0  0  0  0
   -0.1699    2.1308    0.4610 C   0  0  0  1  0  0  0  0  0  0  0  0
   -3.2878    1.7231   -0.0199 C   0  0  0  1  0  0  0  0  0  0  0  0
    5.4573    3.7766    1.5560 C   0  0  0  1  0  0  0  0  0  0  0  0
   -4.2709   -0.2876   -0.0438 C   0  0  0  1  0  0  0  0  0  0  0  0
   -3.3667   -2.8898    0.5870 C   0  0  0  1  0  0  0  0  0  0  0  0
   -3.8140   -3.5718    1.6115 C   0  0  0  1  0  0  0  0  0  0  0  0
   -3.5999   -3.1980    3.0539 C   0  0  0  1  0  0  0  0  0  0  0  0
    5.9813    5.1178    1.9935 C   0  0  0  1  0  0  0  0  0  0  0  0
   -2.7501   -4.1642    3.8566 C   0  0  0  1  0  0  0  0  0  0  0  0
   -1.2732   -4.1903    3.4979 C   0  0  0  1  0  0  0  0  0  0  0  0
   -0.5573   -2.9412    3.8817 C   0  0  0  1  0  0  0  0  0  0  0  0
   -8.2566    4.6705   -4.6171 H   0  0  0  1  0  0  0  0  0  0  0  0
  -11.3919    1.6092   -7.9342 H   0  0  0  1  0  0  0  0  0  0  0  0
   -9.7906    2.3079   -7.9186 H   0  0  0  1  0  0  0  0  0  0  0  0
  -11.1964    3.3421   -7.8277 H   0  0  0  1  0  0  0  0  0  0  0  0
   -8.0957    5.9769   -2.2431 H   0  0  0  1  0  0  0  0  0  0  0  0
   -9.7615    6.2384   -2.7006 H   0  0  0  1  0  0  0  0  0  0  0  0
   -8.4718    6.8272   -3.7224 H   0  0  0  1  0  0  0  0  0  0  0  0
    2.0250    1.0372    2.5320 H   0  0  0  1  0  0  0  0  0  0  0  0
   -8.8456    2.9095   -6.0250 H   0  0  0  1  0  0  0  0  0  0  0  0
   -8.1614    1.1450   -1.8382 H   0  0  0  1  0  0  0  0  0  0  0  0
   -7.8340    2.8608   -1.8936 H   0  0  0  1  0  0  0  0  0  0  0  0
   -7.8182    0.9289   -4.1757 H   0  0  0  1  0  0  0  0  0  0  0  0
   -7.2103    2.5632   -4.2937 H   0  0  0  1  0  0  0  0  0  0  0  0
   -5.5254    2.4086   -2.4738 H   0  0  0  1  0  0  0  0  0  0  0  0
   -5.8485    0.6914   -2.4414 H   0  0  0  1  0  0  0  0  0  0  0  0
    2.0384    3.1691   -0.5143 H   0  0  0  1  0  0  0  0  0  0  0  0
    2.1605    1.4300   -0.6358 H   0  0  0  1  0  0  0  0  0  0  0  0
  -10.0194    1.7296   -3.6148 H   0  0  0  1  0  0  0  0  0  0  0  0
   -5.8395    2.6059   -0.1585 H   0  0  0  1  0  0  0  0  0  0  0  0
   -6.5229    1.0015   -0.0451 H   0  0  0  1  0  0  0  0  0  0  0  0
   -1.8937   -1.7603    1.5818 H   0  0  0  1  0  0  0  0  0  0  0  0
   -1.5633   -2.0540   -0.1090 H   0  0  0  1  0  0  0  0  0  0  0  0
    1.2502    2.9501    1.7955 H   0  0  0  1  0  0  0  0  0  0  0  0
    4.3258    2.0212   -0.2180 H   0  0  0  1  0  0  0  0  0  0  0  0
    3.7391    1.6577    1.3875 H   0  0  0  1  0  0  0  0  0  0  0  0
   -0.3669    0.1214    0.8396 H   0  0  0  1  0  0  0  0  0  0  0  0
    3.3938    4.0294    1.7937 H   0  0  0  1  0  0  0  0  0  0  0  0
    3.9933    4.3880    0.1918 H   0  0  0  1  0  0  0  0  0  0  0  0
   -0.5312    2.9713   -0.0334 H   0  0  0  1  0  0  0  0  0  0  0  0
    6.1094    3.4131    0.7896 H   0  0  0  1  0  0  0  0  0  0  0  0
    5.5027    3.1240    2.4028 H   0  0  0  1  0  0  0  0  0  0  0  0
   -3.7808   -3.1192   -0.3390 H   0  0  0  1  0  0  0  0  0  0  0  0
   -4.3577   -4.4361    1.4140 H   0  0  0  1  0  0  0  0  0  0  0  0
   -4.5590   -3.1330    3.5239 H   0  0  0  1  0  0  0  0  0  0  0  0
   -3.1239   -2.2401    3.0795 H   0  0  0  1  0  0  0  0  0  0  0  0
    6.0170    5.7788    1.1529 H   0  0  0  1  0  0  0  0  0  0  0  0
    6.9652    5.0015    2.3975 H   0  0  0  1  0  0  0  0  0  0  0  0
    5.3342    5.5267    2.7412 H   0  0  0  1  0  0  0  0  0  0  0  0
   -3.1424   -5.1488    3.7094 H   0  0  0  1  0  0  0  0  0  0  0  0
   -2.8338   -3.8971    4.8893 H   0  0  0  1  0  0  0  0  0  0  0  0
   -1.1820   -4.3238    2.4402 H   0  0  0  1  0  0  0  0  0  0  0  0
   -0.8146   -5.0146    4.0029 H   0  0  0  1  0  0  0  0  0  0  0  0
  1 34  1  0  0  0  0
  2  4  1  0  0  0  0
  3  4  1  0  0  0  0
  4  5  1  0  0  0  0
  4 32  1  0  0  0  0
  6 10  1  0  0  0  0
  6 26  1  0  0  0  0
  6 42  1  0  0  0  0
  7  8  1  0  0  0  0
  7  9  2  0  0  0  0
  7 13  1  0  0  0  0
  8 43  1  0  0  0  0
  8 44  1  0  0  0  0
  8 45  1  0  0  0  0
 10 46  1  0  0  0  0
 10 47  1  0  0  0  0
 10 48  1  0  0  0  0
 11 27  1  0  0  0  0
 11 49  1  0  0  0  0
 12 26  2  0  0  0  0
 13 23  1  0  0  0  0
 13 50  1  0  0  0  0
 14 41  1  0  0  0  0
 15 24  1  0  0  0  0
 15 32  4  0  0  0  0
 15 34  4  0  0  0  0
 16 41  2  0  0  0  0
 17 18  1  0  0  0  0
 17 20  1  0  0  0  0
 17 51  1  0  0  0  0
 17 52  1  0  0  0  0
 18 23  1  0  0  0  0
 18 53  1  0  0  0  0
 18 54  1  0  0  0  0
 19 21  4  0  0  0  0
 19 29  1  0  0  0  0
 19 32  4  0  0  0  0
 20 24  1  0  0  0  0
 20 55  1  0  0  0  0
 20 56  1  0  0  0  0
 21 25  1  0  0  0  0
 21 34  4  0  0  0  0
 22 27  1  0  0  0  0
 22 28  1  0  0  0  0
 22 57  1  0  0  0  0
 22 58  1  0  0  0  0
 23 26  1  0  0  0  0
 23 59  1  0  0  0  0
 24 60  1  0  0  0  0
 24 61  1  0  0  0  0
 25 35  1  0  0  0  0
 25 62  1  0  0  0  0
 25 63  1  0  0  0  0
 27 31  1  0  0  0  0
 27 64  1  0  0  0  0
 28 30  1  0  0  0  0
 28 65  1  0  0  0  0
 28 66  1  0  0  0  0
 29 31  2  0  0  0  0
 29 67  1  0  0  0  0
 30 33  1  0  0  0  0
 30 68  1  0  0  0  0
 30 69  1  0  0  0  0
 31 70  1  0  0  0  0
 33 38  1  0  0  0  0
 33 71  1  0  0  0  0
 33 72  1  0  0  0  0
 35 36  2  0  0  0  0
 35 73  1  0  0  0  0
 36 37  1  0  0  0  0
 36 74  1  0  0  0  0
 37 39  1  0  0  0  0
 37 75  1  0  0  0  0
 37 76  1  0  0  0  0
 38 77  1  0  0  0  0
 38 78  1  0  0  0  0
 38 79  1  0  0  0  0
 39 40  1  0  0  0  0
 39 80  1  0  0  0  0
 39 81  1  0  0  0  0
 40 41  1  0  0  0  0
 40 82  1  0  0  0  0
 40 83  1  0  0  0  0
M  END
> <ConfClashScore>
0 

> <ConfOneFourInteractionScore>
-0.989929 

> <ConfScore>
0.0465225 

> <ConfScorePBest>
0.00444463 

> <ConfTolerance>
1.86121 

$$$$
9548876
  PyMOL2.2          3D                             0

 83 83  0  0  0  0  0  0  0  0999 V2000
   -5.0134   -1.0370   -0.0697 H   0  0  0  1  0  0  0  0  0  0  0  0
   -2.2565    3.5119    0.3173 H   0  0  0  1  0  0  0  0  0  0  0  0
   -3.9961    3.6565    0.3909 H   0  0  0  1  0  0  0  0  0  0  0  0
   -3.1790    3.1919   -0.1203 C   0  0  0  1  0  0  0  0  0  0  0  0
   -3.1991    3.4705   -1.1532 H   0  0  0  1  0  0  0  0  0  0  0  0
  -10.1529    6.4331    2.9880 N   0  0  0  1  0  0  0  0  0  0  0  0
   -7.6827    7.3521    1.4045 C   0  0  0  1  0  0  0  0  0  0  0  0
   -6.5869    8.2860    1.8662 C   0  0  0  1  0  0  0  0  0  0  0  0
   -8.5396    7.7303    0.6068 O   0  0  0  1  0  0  0  0  0  0  0  0
  -11.3167    6.6857    3.8244 C   0  0  0  1  0  0  0  0  0  0  0  0
    1.7048    1.3874    1.4903 O   0  0  0  1  0  0  0  0  0  0  0  0
  -10.6654    4.2887    2.5875 O   0  0  0  1  0  0  0  0  0  0  0  0
   -7.6917    6.1007    1.8905 N   0  0  0  1  0  0  0  0  0  0  0  0
   -2.5277   -4.9323    3.5327 O   0  5  0  1  0  0  0  0  0  0  0  0
   -4.4803    1.0555   -0.1688 N   0  0  0  1  0  0  0  0  0  0  0  0
   -3.7560   -4.1344    1.7922 O   0  0  0  1  0  0  0  0  0  0  0  0
   -7.1380    3.3833    0.5057 C   0  0  0  1  0  0  0  0  0  0  0  0
   -8.1981    3.6805    1.5550 C   0  0  0  1  0  0  0  0  0  0  0  0
   -2.3217    0.7639    0.2740 C   0  0  0  1  0  0  0  0  0  0  0  0
   -6.7130    1.9243    0.4749 C   0  0  0  1  0  0  0  0  0  0  0  0
   -2.9463   -0.4918    0.2758 C   0  0  0  1  0  0  0  0  0  0  0  0
    1.9763    2.9902   -0.2583 C   0  0  0  1  0  0  0  0  0  0  0  0
   -8.7062    5.1277    1.5136 C   0  0  0  1  0  0  0  0  0  0  0  0
   -5.7163    1.6773   -0.6448 C   0  0  0  1  0  0  0  0  0  0  0  0
   -2.2750   -1.8201    0.5341 C   0  0  0  1  0  0  0  0  0  0  0  0
   -9.9151    5.2390    2.4378 C   0  0  0  1  0  0  0  0  0  0  0  0
    1.0625    2.4984    0.8692 C   0  0  0  1  0  0  0  0  0  0  0  0
    1.3259    4.0374   -1.1475 C   0  0  0  1  0  0  0  0  0  0  0  0
   -0.9067    1.0148    0.5195 C   0  0  0  1  0  0  0  0  0  0  0  0
    2.2442    4.5516   -2.2431 C   0  0  0  1  0  0  0  0  0  0  0  0
   -0.2893    2.1561    0.3283 C   0  0  0  1  0  0  0  0  0  0  0  0
   -3.2978    1.7113   -0.0033 C   0  0  0  1  0  0  0  0  0  0  0  0
    1.5538    5.6236   -3.0642 C   0  0  0  1  0  0  0  0  0  0  0  0
   -4.2855   -0.2974   -0.0009 C   0  0  0  1  0  0  0  0  0  0  0  0
   -1.4409   -2.3219   -0.5925 C   0  0  0  1  0  0  0  0  0  0  0  0
   -1.5781   -3.5419   -1.0482 C   0  0  0  1  0  0  0  0  0  0  0  0
   -2.7198   -4.4863   -0.7827 C   0  0  0  1  0  0  0  0  0  0  0  0
    2.4010    6.1396   -4.2159 C   0  0  0  1  0  0  0  0  0  0  0  0
   -2.2352   -5.7236   -0.0329 C   0  0  0  1  0  0  0  0  0  0  0  0
   -1.7305   -5.3514    1.3516 C   0  0  0  1  0  0  0  0  0  0  0  0
   -2.7822   -4.7383    2.2109 C   0  0  0  1  0  0  0  0  0  0  0  0
   -9.5217    7.1643    2.8225 H   0  0  0  1  0  0  0  0  0  0  0  0
   -6.0676    7.8466    2.6921 H   0  0  0  1  0  0  0  0  0  0  0  0
   -7.0171    9.2173    2.1703 H   0  0  0  1  0  0  0  0  0  0  0  0
   -5.9007    8.4550    1.0628 H   0  0  0  1  0  0  0  0  0  0  0  0
  -12.1396    6.0953    3.4792 H   0  0  0  1  0  0  0  0  0  0  0  0
  -11.5752    7.7227    3.7716 H   0  0  0  1  0  0  0  0  0  0  0  0
  -11.0910    6.4250    4.8373 H   0  0  0  1  0  0  0  0  0  0  0  0
    2.5414    1.2149    1.0522 H   0  0  0  1  0  0  0  0  0  0  0  0
   -6.9908    5.8331    2.5210 H   0  0  0  1  0  0  0  0  0  0  0  0
   -6.2769    3.9832    0.7141 H   0  0  0  1  0  0  0  0  0  0  0  0
   -7.5300    3.6429   -0.4555 H   0  0  0  1  0  0  0  0  0  0  0  0
   -7.7794    3.4955    2.5222 H   0  0  0  1  0  0  0  0  0  0  0  0
   -9.0282    3.0248    1.3938 H   0  0  0  1  0  0  0  0  0  0  0  0
   -7.5756    1.3108    0.3184 H   0  0  0  1  0  0  0  0  0  0  0  0
   -6.2595    1.6711    1.4104 H   0  0  0  1  0  0  0  0  0  0  0  0
    2.2482    2.1517   -0.8647 H   0  0  0  1  0  0  0  0  0  0  0  0
    2.8557    3.4151    0.1788 H   0  0  0  1  0  0  0  0  0  0  0  0
   -9.0319    5.3342    0.5155 H   0  0  0  1  0  0  0  0  0  0  0  0
   -6.1676    1.0323   -1.3694 H   0  0  0  1  0  0  0  0  0  0  0  0
   -5.4748    2.6142   -1.1017 H   0  0  0  1  0  0  0  0  0  0  0  0
   -3.0360   -2.5451    0.7347 H   0  0  0  1  0  0  0  0  0  0  0  0
   -1.6465   -1.7148    1.3936 H   0  0  0  1  0  0  0  0  0  0  0  0
    0.9511    3.2914    1.5788 H   0  0  0  1  0  0  0  0  0  0  0  0
    1.0301    4.8647   -0.5368 H   0  0  0  1  0  0  0  0  0  0  0  0
    0.4612    3.6041   -1.6052 H   0  0  0  1  0  0  0  0  0  0  0  0
   -0.3381    0.2207    0.8769 H   0  0  0  1  0  0  0  0  0  0  0  0
    2.5151    3.7387   -2.8841 H   0  0  0  1  0  0  0  0  0  0  0  0
    3.1253    4.9640   -1.7976 H   0  0  0  1  0  0  0  0  0  0  0  0
   -0.7760    2.8769   -0.2420 H   0  0  0  1  0  0  0  0  0  0  0  0
    1.3195    6.4456   -2.4205 H   0  0  0  1  0  0  0  0  0  0  0  0
    0.6498    5.2145   -3.4647 H   0  0  0  1  0  0  0  0  0  0  0  0
   -0.7361   -1.6917   -1.0257 H   0  0  0  1  0  0  0  0  0  0  0  0
   -0.8154   -3.8968   -1.6598 H   0  0  0  1  0  0  0  0  0  0  0  0
   -3.1502   -4.7872   -1.7150 H   0  0  0  1  0  0  0  0  0  0  0  0
   -3.4591   -3.9859   -0.1929 H   0  0  0  1  0  0  0  0  0  0  0  0
    2.5880    5.3438   -4.9062 H   0  0  0  1  0  0  0  0  0  0  0  0
    3.3310    6.5086   -3.8368 H   0  0  0  1  0  0  0  0  0  0  0  0
    1.8802    6.9297   -4.7153 H   0  0  0  1  0  0  0  0  0  0  0  0
   -1.4403   -6.1797   -0.5852 H   0  0  0  1  0  0  0  0  0  0  0  0
   -3.0459   -6.4154    0.0634 H   0  0  0  1  0  0  0  0  0  0  0  0
   -0.9277   -4.6521    1.2448 H   0  0  0  1  0  0  0  0  0  0  0  0
   -1.3712   -6.2370    1.8326 H   0  0  0  1  0  0  0  0  0  0  0  0
  1 34  1  0  0  0  0
  2  4  1  0  0  0  0
  3  4  1  0  0  0  0
  4  5  1  0  0  0  0
  4 32  1  0  0  0  0
  6 10  1  0  0  0  0
  6 26  1  0  0  0  0
  6 42  1  0  0  0  0
  7  8  1  0  0  0  0
  7  9  2  0  0  0  0
  7 13  1  0  0  0  0
  8 43  1  0  0  0  0
  8 44  1  0  0  0  0
  8 45  1  0  0  0  0
 10 46  1  0  0  0  0
 10 47  1  0  0  0  0
 10 48  1  0  0  0  0
 11 27  1  0  0  0  0
 11 49  1  0  0  0  0
 12 26  2  0  0  0  0
 13 23  1  0  0  0  0
 13 50  1  0  0  0  0
 14 41  1  0  0  0  0
 15 24  1  0  0  0  0
 15 32  4  0  0  0  0
 15 34  4  0  0  0  0
 16 41  2  0  0  0  0
 17 18  1  0  0  0  0
 17 20  1  0  0  0  0
 17 51  1  0  0  0  0
 17 52  1  0  0  0  0
 18 23  1  0  0  0  0
 18 53  1  0  0  0  0
 18 54  1  0  0  0  0
 19 21  4  0  0  0  0
 19 29  1  0  0  0  0
 19 32  4  0  0  0  0
 20 24  1  0  0  0  0
 20 55  1  0  0  0  0
 20 56  1  0  0  0  0
 21 25  1  0  0  0  0
 21 34  4  0  0  0  0
 22 27  1  0  0  0  0
 22 28  1  0  0  0  0
 22 57  1  0  0  0  0
 22 58  1  0  0  0  0
 23 26  1  0  0  0  0
 23 59  1  0  0  0  0
 24 60  1  0  0  0  0
 24 61  1  0  0  0  0
 25 35  1  0  0  0  0
 25 62  1  0  0  0  0
 25 63  1  0  0  0  0
 27 31  1  0  0  0  0
 27 64  1  0  0  0  0
 28 30  1  0  0  0  0
 28 65  1  0  0  0  0
 28 66  1  0  0  0  0
 29 31  2  0  0  0  0
 29 67  1  0  0  0  0
 30 33  1  0  0  0  0
 30 68  1  0  0  0  0
 30 69  1  0  0  0  0
 31 70  1  0  0  0  0
 33 38  1  0  0  0  0
 33 71  1  0  0  0  0
 33 72  1  0  0  0  0
 35 36  2  0  0  0  0
 35 73  1  0  0  0  0
 36 37  1  0  0  0  0
 36 74  1  0  0  0  0
 37 39  1  0  0  0  0
 37 75  1  0  0  0  0
 37 76  1  0  0  0  0
 38 77  1  0  0  0  0
 38 78  1  0  0  0  0
 38 79  1  0  0  0  0
 39 40  1  0  0  0  0
 39 80  1  0  0  0  0
 39 81  1  0  0  0  0
 40 41  1  0  0  0  0
 40 82  1  0  0  0  0
 40 83  1  0  0  0  0
M  END
> <ConfClashScore>
0 

> <ConfOneFourInteractionScore>
-0.986877 

> <ConfScore>
0.0478944 

> <ConfScorePBest>
0.00441614 

> <ConfTolerance>
1.95156 

$$$$
9548876
  PyMOL2.2          3D                             0

 83 83  0  0  0  0  0  0  0  0999 V2000
   -5.0056   -1.0230   -0.1145 H   0  0  0  1  0  0  0  0  0  0  0  0
   -2.4248    3.4533   -0.8374 H   0  0  0  1  0  0  0  0  0  0  0  0
   -2.9627    3.6228    0.8162 H   0  0  0  1  0  0  0  0  0  0  0  0
   -3.1921    3.1956   -0.1376 C   0  0  0  1  0  0  0  0  0  0  0  0
   -4.1312    3.5754   -0.4825 H   0  0  0  1  0  0  0  0  0  0  0  0
  -11.0171    2.5829   -1.8007 N   0  0  0  1  0  0  0  0  0  0  0  0
  -11.9308    1.1090    2.4904 C   0  0  0  1  0  0  0  0  0  0  0  0
  -13.0317    0.2851    3.1294 C   0  0  0  1  0  0  0  0  0  0  0  0
  -11.3023    1.9458    3.1372 O   0  0  0  1  0  0  0  0  0  0  0  0
  -11.3620    2.6476   -3.2131 C   0  0  0  1  0  0  0  0  0  0  0  0
    1.4788    0.8427    2.1580 O   0  0  0  1  0  0  0  0  0  0  0  0
  -11.1300    0.3361   -1.6408 O   0  0  0  1  0  0  0  0  0  0  0  0
  -11.6970    0.8626    1.1917 N   0  0  0  1  0  0  0  0  0  0  0  0
   -1.8132   -8.3934   -1.7039 O   0  5  0  1  0  0  0  0  0  0  0  0
   -4.4556    1.0656   -0.2028 N   0  0  0  1  0  0  0  0  0  0  0  0
   -1.9192   -6.4384   -2.8911 O   0  0  0  1  0  0  0  0  0  0  0  0
   -8.2302    1.7538   -0.1262 C   0  0  0  1  0  0  0  0  0  0  0  0
   -9.3094    1.0905    0.7138 C   0  0  0  1  0  0  0  0  0  0  0  0
   -2.3097    0.7593    0.2887 C   0  0  0  1  0  0  0  0  0  0  0  0
   -6.8807    1.2028    0.3046 C   0  0  0  1  0  0  0  0  0  0  0  0
   -2.9430   -0.4921    0.2772 C   0  0  0  1  0  0  0  0  0  0  0  0
    1.7844   -1.4147    1.4748 C   0  0  0  1  0  0  0  0  0  0  0  0
  -10.7221    1.5671    0.3723 C   0  0  0  1  0  0  0  0  0  0  0  0
   -5.7245    1.7112   -0.5409 C   0  0  0  1  0  0  0  0  0  0  0  0
   -2.2871   -1.8248    0.5514 C   0  0  0  1  0  0  0  0  0  0  0  0
  -11.0040    1.4327   -1.1212 C   0  0  0  1  0  0  0  0  0  0  0  0
    1.3659   -0.0080    1.0342 C   0  0  0  1  0  0  0  0  0  0  0  0
    3.1534   -1.3876    2.1347 C   0  0  0  1  0  0  0  0  0  0  0  0
   -0.8907    0.9391    0.5737 C   0  0  0  1  0  0  0  0  0  0  0  0
    3.5336   -2.7064    2.7880 C   0  0  0  1  0  0  0  0  0  0  0  0
   -0.0172   -0.0334    0.4653 C   0  0  0  1  0  0  0  0  0  0  0  0
   -3.2726    1.7132   -0.0111 C   0  0  0  1  0  0  0  0  0  0  0  0
    4.8166   -2.5659    3.5691 C   0  0  0  1  0  0  0  0  0  0  0  0
   -4.2743   -0.2884   -0.0297 C   0  0  0  1  0  0  0  0  0  0  0  0
   -3.1709   -2.8263    1.2248 C   0  0  0  1  0  0  0  0  0  0  0  0
   -3.4191   -4.0764    0.8270 C   0  0  0  1  0  0  0  0  0  0  0  0
   -2.5406   -4.6808   -0.2356 C   0  0  0  1  0  0  0  0  0  0  0  0
    5.3184   -3.8777    4.1423 C   0  0  0  1  0  0  0  0  0  0  0  0
   -1.7010   -5.8406    0.2747 C   0  0  0  1  0  0  0  0  0  0  0  0
   -0.8044   -6.4500   -0.7907 C   0  0  0  1  0  0  0  0  0  0  0  0
   -1.5672   -7.0718   -1.9096 C   0  0  0  1  0  0  0  0  0  0  0  0
  -10.7864    3.4119   -1.3318 H   0  0  0  1  0  0  0  0  0  0  0  0
  -12.7124   -0.7325    3.2151 H   0  0  0  1  0  0  0  0  0  0  0  0
  -13.9110    0.3328    2.5216 H   0  0  0  1  0  0  0  0  0  0  0  0
  -13.2487    0.6737    4.1024 H   0  0  0  1  0  0  0  0  0  0  0  0
  -12.1468    1.9507   -3.4213 H   0  0  0  1  0  0  0  0  0  0  0  0
  -10.5025    2.4027   -3.8014 H   0  0  0  1  0  0  0  0  0  0  0  0
  -11.6903    3.6368   -3.4548 H   0  0  0  1  0  0  0  0  0  0  0  0
    2.3012    1.3352    2.1057 H   0  0  0  1  0  0  0  0  0  0  0  0
  -12.2223    0.1550    0.7630 H   0  0  0  1  0  0  0  0  0  0  0  0
   -8.2535    2.8127    0.0263 H   0  0  0  1  0  0  0  0  0  0  0  0
   -8.3946    1.5384   -1.1613 H   0  0  0  1  0  0  0  0  0  0  0  0
   -9.1182    1.3068    1.7441 H   0  0  0  1  0  0  0  0  0  0  0  0
   -9.2605    0.0334    0.5557 H   0  0  0  1  0  0  0  0  0  0  0  0
   -6.9110    0.1357    0.2315 H   0  0  0  1  0  0  0  0  0  0  0  0
   -6.7076    1.4864    1.3218 H   0  0  0  1  0  0  0  0  0  0  0  0
    1.8205   -2.0545    0.6179 H   0  0  0  1  0  0  0  0  0  0  0  0
    1.0661   -1.7921    2.1723 H   0  0  0  1  0  0  0  0  0  0  0  0
  -10.7732    2.6082    0.6136 H   0  0  0  1  0  0  0  0  0  0  0  0
   -5.9427    1.5198   -1.5708 H   0  0  0  1  0  0  0  0  0  0  0  0
   -5.6246    2.7653   -0.3869 H   0  0  0  1  0  0  0  0  0  0  0  0
   -1.4366   -1.6555    1.1781 H   0  0  0  1  0  0  0  0  0  0  0  0
   -1.9664   -2.2373   -0.3823 H   0  0  0  1  0  0  0  0  0  0  0  0
    2.0390    0.3151    0.2678 H   0  0  0  1  0  0  0  0  0  0  0  0
    3.1532   -0.6249    2.8852 H   0  0  0  1  0  0  0  0  0  0  0  0
    3.8848   -1.1550    1.3892 H   0  0  0  1  0  0  0  0  0  0  0  0
   -0.5578    1.8770    0.8753 H   0  0  0  1  0  0  0  0  0  0  0  0
    3.6645   -3.4490    2.0289 H   0  0  0  1  0  0  0  0  0  0  0  0
    2.7502   -3.0079    3.4515 H   0  0  0  1  0  0  0  0  0  0  0  0
   -0.3079   -0.8856   -0.0551 H   0  0  0  1  0  0  0  0  0  0  0  0
    4.6490   -1.8846    4.3770 H   0  0  0  1  0  0  0  0  0  0  0  0
    5.5683   -2.1703    2.9184 H   0  0  0  1  0  0  0  0  0  0  0  0
   -3.6433   -2.5150    2.0975 H   0  0  0  1  0  0  0  0  0  0  0  0
   -4.2021   -4.6207    1.2421 H   0  0  0  1  0  0  0  0  0  0  0  0
   -1.8836   -3.9220   -0.6064 H   0  0  0  1  0  0  0  0  0  0  0  0
   -3.1626   -5.0347   -1.0310 H   0  0  0  1  0  0  0  0  0  0  0  0
    6.0643   -4.2885    3.4944 H   0  0  0  1  0  0  0  0  0  0  0  0
    4.5025   -4.5648    4.2273 H   0  0  0  1  0  0  0  0  0  0  0  0
    5.7423   -3.7051    5.1095 H   0  0  0  1  0  0  0  0  0  0  0  0
   -2.3592   -6.6010    0.6398 H   0  0  0  1  0  0  0  0  0  0  0  0
   -1.0849   -5.4871    1.0749 H   0  0  0  1  0  0  0  0  0  0  0  0
   -0.1957   -7.2023   -0.3341 H   0  0  0  1  0  0  0  0  0  0  0  0
   -0.1794   -5.6795   -1.1915 H   0  0  0  1  0  0  0  0  0  0  0  0
  1 34  1  0  0  0  0
  2  4  1  0  0  0  0
  3  4  1  0  0  0  0
  4  5  1  0  0  0  0
  4 32  1  0  0  0  0
  6 10  1  0  0  0  0
  6 26  1  0  0  0  0
  6 42  1  0  0  0  0
  7  8  1  0  0  0  0
  7  9  2  0  0  0  0
  7 13  1  0  0  0  0
  8 43  1  0  0  0  0
  8 44  1  0  0  0  0
  8 45  1  0  0  0  0
 10 46  1  0  0  0  0
 10 47  1  0  0  0  0
 10 48  1  0  0  0  0
 11 27  1  0  0  0  0
 11 49  1  0  0  0  0
 12 26  2  0  0  0  0
 13 23  1  0  0  0  0
 13 50  1  0  0  0  0
 14 41  1  0  0  0  0
 15 24  1  0  0  0  0
 15 32  4  0  0  0  0
 15 34  4  0  0  0  0
 16 41  2  0  0  0  0
 17 18  1  0  0  0  0
 17 20  1  0  0  0  0
 17 51  1  0  0  0  0
 17 52  1  0  0  0  0
 18 23  1  0  0  0  0
 18 53  1  0  0  0  0
 18 54  1  0  0  0  0
 19 21  4  0  0  0  0
 19 29  1  0  0  0  0
 19 32  4  0  0  0  0
 20 24  1  0  0  0  0
 20 55  1  0  0  0  0
 20 56  1  0  0  0  0
 21 25  1  0  0  0  0
 21 34  4  0  0  0  0
 22 27  1  0  0  0  0
 22 28  1  0  0  0  0
 22 57  1  0  0  0  0
 22 58  1  0  0  0  0
 23 26  1  0  0  0  0
 23 59  1  0  0  0  0
 24 60  1  0  0  0  0
 24 61  1  0  0  0  0
 25 35  1  0  0  0  0
 25 62  1  0  0  0  0
 25 63  1  0  0  0  0
 27 31  1  0  0  0  0
 27 64  1  0  0  0  0
 28 30  1  0  0  0  0
 28 65  1  0  0  0  0
 28 66  1  0  0  0  0
 29 31  2  0  0  0  0
 29 67  1  0  0  0  0
 30 33  1  0  0  0  0
 30 68  1  0  0  0  0
 30 69  1  0  0  0  0
 31 70  1  0  0  0  0
 33 38  1  0  0  0  0
 33 71  1  0  0  0  0
 33 72  1  0  0  0  0
 35 36  2  0  0  0  0
 35 73  1  0  0  0  0
 36 37  1  0  0  0  0
 36 74  1  0  0  0  0
 37 39  1  0  0  0  0
 37 75  1  0  0  0  0
 37 76  1  0  0  0  0
 38 77  1  0  0  0  0
 38 78  1  0  0  0  0
 38 79  1  0  0  0  0
 39 40  1  0  0  0  0
 39 80  1  0  0  0  0
 39 81  1  0  0  0  0
 40 41  1  0  0  0  0
 40 82  1  0  0  0  0
 40 83  1  0  0  0  0
M  END
> <ConfClashScore>
0 

> <ConfOneFourInteractionScore>
-0.993886 

> <ConfScore>
0.0487781 

> <ConfScorePBest>
0.00438766 

> <ConfTolerance>
1.75327 

$$$$
9548876
  PyMOL2.2          3D                             0

 83 83  0  0  0  0  0  0  0  0999 V2000
   -5.0208   -1.0363   -0.0784 H   0  0  0  1  0  0  0  0  0  0  0  0
   -3.9507    3.5638   -0.7474 H   0  0  0  1  0  0  0  0  0  0  0  0
   -2.2206    3.4342   -0.5414 H   0  0  0  1  0  0  0  0  0  0  0  0
   -3.1717    3.1863   -0.1185 C   0  0  0  1  0  0  0  0  0  0  0  0
   -3.2552    3.6242    0.8542 H   0  0  0  1  0  0  0  0  0  0  0  0
  -11.5131    1.2375    3.2575 N   0  0  0  1  0  0  0  0  0  0  0  0
  -11.1520   -1.2178    1.3033 C   0  0  0  1  0  0  0  0  0  0  0  0
  -11.9966   -1.5849    0.0882 C   0  0  0  1  0  0  0  0  0  0  0  0
  -11.2153   -1.9487    2.2908 O   0  0  0  1  0  0  0  0  0  0  0  0
  -12.4795    1.5734    4.2924 C   0  0  0  1  0  0  0  0  0  0  0  0
    1.1328    3.6343    1.3573 O   0  0  0  1  0  0  0  0  0  0  0  0
   -9.9895    0.3464    4.6614 O   0  0  0  1  0  0  0  0  0  0  0  0
  -10.3883   -0.1237    1.2334 N   0  0  0  1  0  0  0  0  0  0  0  0
   -1.9453   -2.7068   -5.6467 O   0  5  0  1  0  0  0  0  0  0  0  0
   -4.4808    1.0548   -0.1700 N   0  0  0  1  0  0  0  0  0  0  0  0
    0.2497   -2.8524   -6.2257 O   0  0  0  1  0  0  0  0  0  0  0  0
   -7.4822    1.0091    0.9481 C   0  0  0  1  0  0  0  0  0  0  0  0
   -8.5610    1.4215    1.9362 C   0  0  0  1  0  0  0  0  0  0  0  0
   -2.3206    0.7533    0.2580 C   0  0  0  1  0  0  0  0  0  0  0  0
   -6.5941    2.1621    0.5096 C   0  0  0  1  0  0  0  0  0  0  0  0
   -2.9496   -0.5002    0.2572 C   0  0  0  1  0  0  0  0  0  0  0  0
    1.8006    1.3144    1.3610 C   0  0  0  1  0  0  0  0  0  0  0  0
   -9.5041    0.2776    2.3175 C   0  0  0  1  0  0  0  0  0  0  0  0
   -5.7175    1.6834   -0.6351 C   0  0  0  1  0  0  0  0  0  0  0  0
   -2.2905   -1.8151    0.6009 C   0  0  0  1  0  0  0  0  0  0  0  0
  -10.3469    0.6475    3.5345 C   0  0  0  1  0  0  0  0  0  0  0  0
    1.1486    2.4488    0.5941 C   0  0  0  1  0  0  0  0  0  0  0  0
    2.1263    0.1096    0.4935 C   0  0  0  1  0  0  0  0  0  0  0  0
   -0.9109    1.0529    0.4897 C   0  0  0  1  0  0  0  0  0  0  0  0
    2.7088   -1.0556    1.2752 C   0  0  0  1  0  0  0  0  0  0  0  0
   -0.1907    2.0590    0.0543 C   0  0  0  1  0  0  0  0  0  0  0  0
   -3.2950    1.7055   -0.0084 C   0  0  0  1  0  0  0  0  0  0  0  0
    3.1560   -2.1643    0.3364 C   0  0  0  1  0  0  0  0  0  0  0  0
   -4.2899   -0.2996   -0.0102 C   0  0  0  1  0  0  0  0  0  0  0  0
   -3.0236   -3.0245    0.1140 C   0  0  0  1  0  0  0  0  0  0  0  0
   -2.6501   -3.8440   -0.8367 C   0  0  0  1  0  0  0  0  0  0  0  0
   -1.4143   -3.6779   -1.6800 C   0  0  0  1  0  0  0  0  0  0  0  0
    4.4281   -2.8616    0.7903 C   0  0  0  1  0  0  0  0  0  0  0  0
   -1.6588   -3.2324   -3.1158 C   0  0  0  1  0  0  0  0  0  0  0  0
   -0.3792   -3.0409   -3.9134 C   0  0  0  1  0  0  0  0  0  0  0  0
   -0.6222   -2.8614   -5.3725 C   0  0  0  1  0  0  0  0  0  0  0  0
  -11.7251    1.4516    2.3250 H   0  0  0  1  0  0  0  0  0  0  0  0
  -12.6855   -0.7931   -0.1204 H   0  0  0  1  0  0  0  0  0  0  0  0
  -12.5387   -2.4851    0.2897 H   0  0  0  1  0  0  0  0  0  0  0  0
  -11.3584   -1.7340   -0.7576 H   0  0  0  1  0  0  0  0  0  0  0  0
  -13.0345    0.6987    4.5603 H   0  0  0  1  0  0  0  0  0  0  0  0
  -13.1498    2.3220    3.9248 H   0  0  0  1  0  0  0  0  0  0  0  0
  -11.9648    1.9464    5.1532 H   0  0  0  1  0  0  0  0  0  0  0  0
    0.6134    3.4965    2.1527 H   0  0  0  1  0  0  0  0  0  0  0  0
  -10.4247    0.4276    0.4241 H   0  0  0  1  0  0  0  0  0  0  0  0
   -7.9554    0.5968    0.0816 H   0  0  0  1  0  0  0  0  0  0  0  0
   -6.8677    0.2637    1.4083 H   0  0  0  1  0  0  0  0  0  0  0  0
   -9.1404    2.2070    1.4977 H   0  0  0  1  0  0  0  0  0  0  0  0
   -8.0870    1.7811    2.8256 H   0  0  0  1  0  0  0  0  0  0  0  0
   -5.9803    2.4768    1.3275 H   0  0  0  1  0  0  0  0  0  0  0  0
   -7.2004    2.9808    0.1824 H   0  0  0  1  0  0  0  0  0  0  0  0
    1.1340    1.0029    2.1378 H   0  0  0  1  0  0  0  0  0  0  0  0
    2.7097    1.6762    1.7942 H   0  0  0  1  0  0  0  0  0  0  0  0
   -8.8983   -0.5619    2.5879 H   0  0  0  1  0  0  0  0  0  0  0  0
   -6.2677    0.9710   -1.2136 H   0  0  0  1  0  0  0  0  0  0  0  0
   -5.4656    2.5233   -1.2484 H   0  0  0  1  0  0  0  0  0  0  0  0
   -2.2102   -1.8798    1.6659 H   0  0  0  1  0  0  0  0  0  0  0  0
   -1.3120   -1.8211    0.1679 H   0  0  0  1  0  0  0  0  0  0  0  0
    1.7697    2.6262   -0.2589 H   0  0  0  1  0  0  0  0  0  0  0  0
    2.8361    0.4083   -0.2494 H   0  0  0  1  0  0  0  0  0  0  0  0
    1.2264   -0.2181    0.0163 H   0  0  0  1  0  0  0  0  0  0  0  0
   -0.4037    0.3690    1.0869 H   0  0  0  1  0  0  0  0  0  0  0  0
    1.9639   -1.4388    1.9409 H   0  0  0  1  0  0  0  0  0  0  0  0
    3.5506   -0.7133    1.8400 H   0  0  0  1  0  0  0  0  0  0  0  0
   -0.5799    2.6280   -0.7244 H   0  0  0  1  0  0  0  0  0  0  0  0
    3.3279   -1.7408   -0.6311 H   0  0  0  1  0  0  0  0  0  0  0  0
    2.3741   -2.8920    0.2740 H   0  0  0  1  0  0  0  0  0  0  0  0
   -3.9279   -3.2378    0.5812 H   0  0  0  1  0  0  0  0  0  0  0  0
   -3.2522   -4.6713   -1.0229 H   0  0  0  1  0  0  0  0  0  0  0  0
   -0.9052   -4.6186   -1.7084 H   0  0  0  1  0  0  0  0  0  0  0  0
   -0.7895   -2.9477   -1.2097 H   0  0  0  1  0  0  0  0  0  0  0  0
    5.1674   -2.1292    1.0393 H   0  0  0  1  0  0  0  0  0  0  0  0
    4.7946   -3.4838    0.0007 H   0  0  0  1  0  0  0  0  0  0  0  0
    4.2178   -3.4624    1.6503 H   0  0  0  1  0  0  0  0  0  0  0  0
   -2.1892   -2.3033   -3.0971 H   0  0  0  1  0  0  0  0  0  0  0  0
   -2.2552   -3.9744   -3.6043 H   0  0  0  1  0  0  0  0  0  0  0  0
    0.2407   -3.9020   -3.7748 H   0  0  0  1  0  0  0  0  0  0  0  0
    0.1264   -2.1736   -3.5432 H   0  0  0  1  0  0  0  0  0  0  0  0
  1 34  1  0  0  0  0
  2  4  1  0  0  0  0
  3  4  1  0  0  0  0
  4  5  1  0  0  0  0
  4 32  1  0  0  0  0
  6 10  1  0  0  0  0
  6 26  1  0  0  0  0
  6 42  1  0  0  0  0
  7  8  1  0  0  0  0
  7  9  2  0  0  0  0
  7 13  1  0  0  0  0
  8 43  1  0  0  0  0
  8 44  1  0  0  0  0
  8 45  1  0  0  0  0
 10 46  1  0  0  0  0
 10 47  1  0  0  0  0
 10 48  1  0  0  0  0
 11 27  1  0  0  0  0
 11 49  1  0  0  0  0
 12 26  2  0  0  0  0
 13 23  1  0  0  0  0
 13 50  1  0  0  0  0
 14 41  1  0  0  0  0
 15 24  1  0  0  0  0
 15 32  4  0  0  0  0
 15 34  4  0  0  0  0
 16 41  2  0  0  0  0
 17 18  1  0  0  0  0
 17 20  1  0  0  0  0
 17 51  1  0  0  0  0
 17 52  1  0  0  0  0
 18 23  1  0  0  0  0
 18 53  1  0  0  0  0
 18 54  1  0  0  0  0
 19 21  4  0  0  0  0
 19 29  1  0  0  0  0
 19 32  4  0  0  0  0
 20 24  1  0  0  0  0
 20 55  1  0  0  0  0
 20 56  1  0  0  0  0
 21 25  1  0  0  0  0
 21 34  4  0  0  0  0
 22 27  1  0  0  0  0
 22 28  1  0  0  0  0
 22 57  1  0  0  0  0
 22 58  1  0  0  0  0
 23 26  1  0  0  0  0
 23 59  1  0  0  0  0
 24 60  1  0  0  0  0
 24 61  1  0  0  0  0
 25 35  1  0  0  0  0
 25 62  1  0  0  0  0
 25 63  1  0  0  0  0
 27 31  1  0  0  0  0
 27 64  1  0  0  0  0
 28 30  1  0  0  0  0
 28 65  1  0  0  0  0
 28 66  1  0  0  0  0
 29 31  2  0  0  0  0
 29 67  1  0  0  0  0
 30 33  1  0  0  0  0
 30 68  1  0  0  0  0
 30 69  1  0  0  0  0
 31 70  1  0  0  0  0
 33 38  1  0  0  0  0
 33 71  1  0  0  0  0
 33 72  1  0  0  0  0
 35 36  2  0  0  0  0
 35 73  1  0  0  0  0
 36 37  1  0  0  0  0
 36 74  1  0  0  0  0
 37 39  1  0  0  0  0
 37 75  1  0  0  0  0
 37 76  1  0  0  0  0
 38 77  1  0  0  0  0
 38 78  1  0  0  0  0
 38 79  1  0  0  0  0
 39 40  1  0  0  0  0
 39 80  1  0  0  0  0
 39 81  1  0  0  0  0
 40 41  1  0  0  0  0
 40 82  1  0  0  0  0
 40 83  1  0  0  0  0
M  END
> <ConfClashScore>
0 

> <ConfOneFourInteractionScore>
-0.984264 

> <ConfScore>
0.0538243 

> <ConfScorePBest>
0.00435918 

> <ConfTolerance>
1.92794 

$$$$
9548876
  PyMOL2.2          3D                             0

 83 83  0  0  0  0  0  0  0  0999 V2000
   -5.0123   -1.0322   -0.1371 H   0  0  0  1  0  0  0  0  0  0  0  0
   -2.9755    3.4369   -1.1626 H   0  0  0  1  0  0  0  0  0  0  0  0
   -2.3920    3.5434    0.4807 H   0  0  0  1  0  0  0  0  0  0  0  0
   -3.1796    3.1781   -0.1447 C   0  0  0  1  0  0  0  0  0  0  0  0
   -4.1075    3.6181    0.1558 H   0  0  0  1  0  0  0  0  0  0  0  0
   -9.8548    6.0841    1.9743 N   0  0  0  1  0  0  0  0  0  0  0  0
  -11.5856    2.4078    1.9999 C   0  0  0  1  0  0  0  0  0  0  0  0
  -12.2721    1.1374    1.5373 C   0  0  0  1  0  0  0  0  0  0  0  0
  -12.2352    3.3400    2.4719 O   0  0  0  1  0  0  0  0  0  0  0  0
  -10.3340    7.3331    1.4013 C   0  0  0  1  0  0  0  0  0  0  0  0
    1.3959    1.9940    1.6586 O   0  0  0  1  0  0  0  0  0  0  0  0
  -10.5654    4.7088    0.3341 O   0  0  0  1  0  0  0  0  0  0  0  0
  -10.2508    2.4839    1.8789 N   0  0  0  1  0  0  0  0  0  0  0  0
   -0.0048   -8.4438    4.2125 O   0  5  0  1  0  0  0  0  0  0  0  0
   -4.4518    1.0537   -0.2222 N   0  0  0  1  0  0  0  0  0  0  0  0
   -1.7622   -8.6894    2.8051 O   0  0  0  1  0  0  0  0  0  0  0  0
   -7.6616    2.7654    0.8402 C   0  0  0  1  0  0  0  0  0  0  0  0
   -8.0384    3.5432    2.0768 C   0  0  0  1  0  0  0  0  0  0  0  0
   -2.3138    0.7386    0.2975 C   0  0  0  1  0  0  0  0  0  0  0  0
   -6.1951    2.5297    0.7144 C   0  0  0  1  0  0  0  0  0  0  0  0
   -2.9525   -0.5099    0.2802 C   0  0  0  1  0  0  0  0  0  0  0  0
    1.8173   -0.2097    2.4125 C   0  0  0  1  0  0  0  0  0  0  0  0
   -9.5513    3.7030    2.2561 C   0  0  0  1  0  0  0  0  0  0  0  0
   -5.7127    1.7502   -0.4791 C   0  0  0  1  0  0  0  0  0  0  0  0
   -2.3063   -1.8451    0.5652 C   0  0  0  1  0  0  0  0  0  0  0  0
  -10.0670    4.8806    1.4343 C   0  0  0  1  0  0  0  0  0  0  0  0
    1.4303    0.6493    1.2061 C   0  0  0  1  0  0  0  0  0  0  0  0
    3.1665    0.2514    3.0018 C   0  0  0  1  0  0  0  0  0  0  0  0
   -0.9226    1.0801    0.5777 C   0  0  0  1  0  0  0  0  0  0  0  0
    3.7222   -0.7035    4.0763 C   0  0  0  1  0  0  0  0  0  0  0  0
    0.1169    0.2736    0.6022 C   0  0  0  1  0  0  0  0  0  0  0  0
   -3.2684    1.6963   -0.0164 C   0  0  0  1  0  0  0  0  0  0  0  0
    5.0683   -0.1879    4.5212 C   0  0  0  1  0  0  0  0  0  0  0  0
   -4.2788   -0.3008   -0.0443 C   0  0  0  1  0  0  0  0  0  0  0  0
   -3.2112   -3.0236    0.3931 C   0  0  0  1  0  0  0  0  0  0  0  0
   -3.0804   -4.2056    0.9414 C   0  0  0  1  0  0  0  0  0  0  0  0
   -2.1958   -4.5734    2.0900 C   0  0  0  1  0  0  0  0  0  0  0  0
    5.7258   -1.0561    5.5815 C   0  0  0  1  0  0  0  0  0  0  0  0
   -2.2194   -6.0597    2.4076 C   0  0  0  1  0  0  0  0  0  0  0  0
   -1.1527   -6.4796    3.4057 C   0  0  0  1  0  0  0  0  0  0  0  0
   -1.0136   -7.9628    3.4375 C   0  0  0  1  0  0  0  0  0  0  0  0
   -9.3440    6.1286    2.8094 H   0  0  0  1  0  0  0  0  0  0  0  0
  -12.8829    0.7534    2.3275 H   0  0  0  1  0  0  0  0  0  0  0  0
  -11.5338    0.4098    1.2718 H   0  0  0  1  0  0  0  0  0  0  0  0
  -12.8839    1.3524    0.6862 H   0  0  0  1  0  0  0  0  0  0  0  0
  -10.0585    8.1473    2.0385 H   0  0  0  1  0  0  0  0  0  0  0  0
  -11.3994    7.2973    1.3092 H   0  0  0  1  0  0  0  0  0  0  0  0
   -9.8964    7.4729    0.4350 H   0  0  0  1  0  0  0  0  0  0  0  0
    1.9149    2.0751    2.4622 H   0  0  0  1  0  0  0  0  0  0  0  0
   -9.7464    1.7169    1.5358 H   0  0  0  1  0  0  0  0  0  0  0  0
   -7.9922    3.3120   -0.0182 H   0  0  0  1  0  0  0  0  0  0  0  0
   -8.1561    1.8171    0.8721 H   0  0  0  1  0  0  0  0  0  0  0  0
   -7.5997    4.5170    2.0119 H   0  0  0  1  0  0  0  0  0  0  0  0
   -7.6476    3.0316    2.9315 H   0  0  0  1  0  0  0  0  0  0  0  0
   -5.8800    2.0014    1.5899 H   0  0  0  1  0  0  0  0  0  0  0  0
   -5.7188    3.4874    0.6845 H   0  0  0  1  0  0  0  0  0  0  0  0
    1.8999   -1.2310    2.1041 H   0  0  0  1  0  0  0  0  0  0  0  0
    1.0590   -0.1233    3.1625 H   0  0  0  1  0  0  0  0  0  0  0  0
   -9.7423    3.9092    3.2885 H   0  0  0  1  0  0  0  0  0  0  0  0
   -6.4569    1.0271   -0.7399 H   0  0  0  1  0  0  0  0  0  0  0  0
   -5.5704    2.4268   -1.2957 H   0  0  0  1  0  0  0  0  0  0  0  0
   -1.9568   -1.8376    1.5765 H   0  0  0  1  0  0  0  0  0  0  0  0
   -1.4756   -1.9624   -0.0989 H   0  0  0  1  0  0  0  0  0  0  0  0
    2.1895    0.5393    0.4602 H   0  0  0  1  0  0  0  0  0  0  0  0
    3.0318    1.2169    3.4430 H   0  0  0  1  0  0  0  0  0  0  0  0
    3.8790    0.3184    2.2064 H   0  0  0  1  0  0  0  0  0  0  0  0
   -0.7297    2.0813    0.7825 H   0  0  0  1  0  0  0  0  0  0  0  0
    3.8292   -1.6860    3.6660 H   0  0  0  1  0  0  0  0  0  0  0  0
    3.0538   -0.7360    4.9112 H   0  0  0  1  0  0  0  0  0  0  0  0
    0.0191   -0.6719    0.1804 H   0  0  0  1  0  0  0  0  0  0  0  0
    4.9394    0.7963    4.9207 H   0  0  0  1  0  0  0  0  0  0  0  0
    5.7140   -0.1457    3.6690 H   0  0  0  1  0  0  0  0  0  0  0  0
   -4.0334   -2.8898   -0.2295 H   0  0  0  1  0  0  0  0  0  0  0  0
   -3.6538   -4.9716    0.5340 H   0  0  0  1  0  0  0  0  0  0  0  0
   -2.5203   -4.0350    2.9559 H   0  0  0  1  0  0  0  0  0  0  0  0
   -1.1916   -4.2923    1.8502 H   0  0  0  1  0  0  0  0  0  0  0  0
    6.6862   -0.6536    5.8276 H   0  0  0  1  0  0  0  0  0  0  0  0
    5.8420   -2.0511    5.2056 H   0  0  0  1  0  0  0  0  0  0  0  0
    5.1120   -1.0748    6.4577 H   0  0  0  1  0  0  0  0  0  0  0  0
   -2.0664   -6.6033    1.4987 H   0  0  0  1  0  0  0  0  0  0  0  0
   -3.1788   -6.3047    2.8132 H   0  0  0  1  0  0  0  0  0  0  0  0
   -1.4273   -6.1320    4.3797 H   0  0  0  1  0  0  0  0  0  0  0  0
   -0.2167   -6.0455    3.1223 H   0  0  0  1  0  0  0  0  0  0  0  0
  1 34  1  0  0  0  0
  2  4  1  0  0  0  0
  3  4  1  0  0  0  0
  4  5  1  0  0  0  0
  4 32  1  0  0  0  0
  6 10  1  0  0  0  0
  6 26  1  0  0  0  0
  6 42  1  0  0  0  0
  7  8  1  0  0  0  0
  7  9  2  0  0  0  0
  7 13  1  0  0  0  0
  8 43  1  0  0  0  0
  8 44  1  0  0  0  0
  8 45  1  0  0  0  0
 10 46  1  0  0  0  0
 10 47  1  0  0  0  0
 10 48  1  0  0  0  0
 11 27  1  0  0  0  0
 11 49  1  0  0  0  0
 12 26  2  0  0  0  0
 13 23  1  0  0  0  0
 13 50  1  0  0  0  0
 14 41  1  0  0  0  0
 15 24  1  0  0  0  0
 15 32  4  0  0  0  0
 15 34  4  0  0  0  0
 16 41  2  0  0  0  0
 17 18  1  0  0  0  0
 17 20  1  0  0  0  0
 17 51  1  0  0  0  0
 17 52  1  0  0  0  0
 18 23  1  0  0  0  0
 18 53  1  0  0  0  0
 18 54  1  0  0  0  0
 19 21  4  0  0  0  0
 19 29  1  0  0  0  0
 19 32  4  0  0  0  0
 20 24  1  0  0  0  0
 20 55  1  0  0  0  0
 20 56  1  0  0  0  0
 21 25  1  0  0  0  0
 21 34  4  0  0  0  0
 22 27  1  0  0  0  0
 22 28  1  0  0  0  0
 22 57  1  0  0  0  0
 22 58  1  0  0  0  0
 23 26  1  0  0  0  0
 23 59  1  0  0  0  0
 24 60  1  0  0  0  0
 24 61  1  0  0  0  0
 25 35  1  0  0  0  0
 25 62  1  0  0  0  0
 25 63  1  0  0  0  0
 27 31  1  0  0  0  0
 27 64  1  0  0  0  0
 28 30  1  0  0  0  0
 28 65  1  0  0  0  0
 28 66  1  0  0  0  0
 29 31  2  0  0  0  0
 29 67  1  0  0  0  0
 30 33  1  0  0  0  0
 30 68  1  0  0  0  0
 30 69  1  0  0  0  0
 31 70  1  0  0  0  0
 33 38  1  0  0  0  0
 33 71  1  0  0  0  0
 33 72  1  0  0  0  0
 35 36  2  0  0  0  0
 35 73  1  0  0  0  0
 36 37  1  0  0  0  0
 36 74  1  0  0  0  0
 37 39  1  0  0  0  0
 37 75  1  0  0  0  0
 37 76  1  0  0  0  0
 38 77  1  0  0  0  0
 38 78  1  0  0  0  0
 38 79  1  0  0  0  0
 39 40  1  0  0  0  0
 39 80  1  0  0  0  0
 39 81  1  0  0  0  0
 40 41  1  0  0  0  0
 40 82  1  0  0  0  0
 40 83  1  0  0  0  0
M  END
> <ConfClashScore>
0 

> <ConfOneFourInteractionScore>
-0.992369 

> <ConfScore>
0.0539278 

> <ConfScorePBest>
0.0043307 

> <ConfTolerance>
1.86062 

$$$$
9548876
  PyMOL2.2          3D                             0

 83 83  0  0  0  0  0  0  0  0999 V2000
   -5.0127   -1.0174   -0.1061 H   0  0  0  1  0  0  0  0  0  0  0  0
   -4.0501    3.5584   -0.6509 H   0  0  0  1  0  0  0  0  0  0  0  0
   -2.3070    3.4511   -0.7035 H   0  0  0  1  0  0  0  0  0  0  0  0
   -3.1816    3.1935   -0.1435 C   0  0  0  1  0  0  0  0  0  0  0  0
   -3.1255    3.6350    0.8296 H   0  0  0  1  0  0  0  0  0  0  0  0
   -6.1718   -3.6564   -3.6105 N   0  0  0  1  0  0  0  0  0  0  0  0
   -9.1780   -2.4131   -4.3214 C   0  0  0  1  0  0  0  0  0  0  0  0
  -10.4357   -2.6911   -3.5213 C   0  0  0  1  0  0  0  0  0  0  0  0
   -9.1261   -2.6411   -5.5270 O   0  0  0  1  0  0  0  0  0  0  0  0
   -5.2147   -4.7283   -3.3808 C   0  0  0  1  0  0  0  0  0  0  0  0
    2.1173    2.2384   -1.0381 O   0  0  0  1  0  0  0  0  0  0  0  0
   -4.6413   -2.1305   -4.2552 O   0  0  0  1  0  0  0  0  0  0  0  0
   -8.1501   -1.9112   -3.6310 N   0  0  0  1  0  0  0  0  0  0  0  0
    0.7341   -8.4680   -2.4299 O   0  5  0  1  0  0  0  0  0  0  0  0
   -4.4540    1.0686   -0.2014 N   0  0  0  1  0  0  0  0  0  0  0  0
    1.7673   -7.3730   -0.7074 O   0  0  0  1  0  0  0  0  0  0  0  0
   -6.2294    0.0843   -2.4551 C   0  0  0  1  0  0  0  0  0  0  0  0
   -6.5621   -0.0535   -3.9201 C   0  0  0  1  0  0  0  0  0  0  0  0
   -2.3093    0.7549    0.2908 C   0  0  0  1  0  0  0  0  0  0  0  0
   -6.1418    1.5289   -1.9904 C   0  0  0  1  0  0  0  0  0  0  0  0
   -2.9478   -0.4938    0.2836 C   0  0  0  1  0  0  0  0  0  0  0  0
    1.7977    1.7214    1.2900 C   0  0  0  1  0  0  0  0  0  0  0  0
   -6.9451   -1.4806   -4.3241 C   0  0  0  1  0  0  0  0  0  0  0  0
   -5.7447    1.6681   -0.5416 C   0  0  0  1  0  0  0  0  0  0  0  0
   -2.2976   -1.8284    0.5622 C   0  0  0  1  0  0  0  0  0  0  0  0
   -5.7991   -2.4455   -4.0347 C   0  0  0  1  0  0  0  0  0  0  0  0
    1.4235    1.3775   -0.1544 C   0  0  0  1  0  0  0  0  0  0  0  0
    2.9983    0.9598    1.7943 C   0  0  0  1  0  0  0  0  0  0  0  0
   -0.8969    0.9910    0.5672 C   0  0  0  1  0  0  0  0  0  0  0  0
    3.3433    1.1777    3.2549 C   0  0  0  1  0  0  0  0  0  0  0  0
   -0.0502    1.4538   -0.3531 C   0  0  0  1  0  0  0  0  0  0  0  0
   -3.2683    1.7119   -0.0120 C   0  0  0  1  0  0  0  0  0  0  0  0
    4.5250    0.3307    3.6574 C   0  0  0  1  0  0  0  0  0  0  0  0
   -4.2783   -0.2856   -0.0238 C   0  0  0  1  0  0  0  0  0  0  0  0
   -0.8159   -1.8430    0.3959 C   0  0  0  1  0  0  0  0  0  0  0  0
   -0.0710   -2.5869   -0.3830 C   0  0  0  1  0  0  0  0  0  0  0  0
   -0.4803   -3.8361   -1.0967 C   0  0  0  1  0  0  0  0  0  0  0  0
    4.9714    0.5618    5.0919 C   0  0  0  1  0  0  0  0  0  0  0  0
    0.3949   -5.0558   -0.9279 C   0  0  0  1  0  0  0  0  0  0  0  0
   -0.0404   -6.2863   -1.7069 C   0  0  0  1  0  0  0  0  0  0  0  0
    0.9055   -7.4292   -1.5691 C   0  0  0  1  0  0  0  0  0  0  0  0
   -7.1228   -3.8287   -3.4483 H   0  0  0  1  0  0  0  0  0  0  0  0
  -10.2585   -2.4712   -2.4893 H   0  0  0  1  0  0  0  0  0  0  0  0
  -10.7036   -3.7218   -3.6252 H   0  0  0  1  0  0  0  0  0  0  0  0
  -11.2326   -2.0766   -3.8850 H   0  0  0  1  0  0  0  0  0  0  0  0
   -5.7319   -5.6033   -3.0465 H   0  0  0  1  0  0  0  0  0  0  0  0
   -4.5106   -4.4237   -2.6349 H   0  0  0  1  0  0  0  0  0  0  0  0
   -4.6980   -4.9461   -4.2921 H   0  0  0  1  0  0  0  0  0  0  0  0
    2.1461    1.8440   -1.9129 H   0  0  0  1  0  0  0  0  0  0  0  0
   -8.2076   -1.8329   -2.6559 H   0  0  0  1  0  0  0  0  0  0  0  0
   -5.2860   -0.3876   -2.2755 H   0  0  0  1  0  0  0  0  0  0  0  0
   -6.9897   -0.4094   -1.8866 H   0  0  0  1  0  0  0  0  0  0  0  0
   -5.7074    0.2430   -4.4914 H   0  0  0  1  0  0  0  0  0  0  0  0
   -7.3836    0.5944   -4.1438 H   0  0  0  1  0  0  0  0  0  0  0  0
   -7.0992    1.9873   -2.1253 H   0  0  0  1  0  0  0  0  0  0  0  0
   -5.4155    2.0351   -2.5913 H   0  0  0  1  0  0  0  0  0  0  0  0
    0.9630    1.4946    1.9199 H   0  0  0  1  0  0  0  0  0  0  0  0
    2.0124    2.7682    1.3447 H   0  0  0  1  0  0  0  0  0  0  0  0
   -7.1278   -1.4884   -5.3784 H   0  0  0  1  0  0  0  0  0  0  0  0
   -5.6998    2.7111   -0.3071 H   0  0  0  1  0  0  0  0  0  0  0  0
   -6.4978    1.1995    0.0568 H   0  0  0  1  0  0  0  0  0  0  0  0
   -2.7158   -2.5498   -0.1083 H   0  0  0  1  0  0  0  0  0  0  0  0
   -2.5229   -2.1054    1.5708 H   0  0  0  1  0  0  0  0  0  0  0  0
    1.7269    0.3678   -0.3370 H   0  0  0  1  0  0  0  0  0  0  0  0
    3.8444    1.2530    1.2085 H   0  0  0  1  0  0  0  0  0  0  0  0
    2.8100   -0.0839    1.6523 H   0  0  0  1  0  0  0  0  0  0  0  0
   -0.5352    0.7901    1.5213 H   0  0  0  1  0  0  0  0  0  0  0  0
    2.5001    0.9127    3.8579 H   0  0  0  1  0  0  0  0  0  0  0  0
    3.5824    2.2093    3.4088 H   0  0  0  1  0  0  0  0  0  0  0  0
   -0.4262    1.8761   -1.2259 H   0  0  0  1  0  0  0  0  0  0  0  0
    5.3432    0.5586    3.0066 H   0  0  0  1  0  0  0  0  0  0  0  0
    4.2573   -0.6994    3.5472 H   0  0  0  1  0  0  0  0  0  0  0  0
   -0.2971   -1.1615    0.9858 H   0  0  0  1  0  0  0  0  0  0  0  0
    0.9117   -2.2754   -0.5201 H   0  0  0  1  0  0  0  0  0  0  0  0
   -0.5167   -3.6103   -2.1419 H   0  0  0  1  0  0  0  0  0  0  0  0
   -1.4599   -4.0949   -0.7528 H   0  0  0  1  0  0  0  0  0  0  0  0
    5.7612   -0.1183    5.3341 H   0  0  0  1  0  0  0  0  0  0  0  0
    4.1457    0.3990    5.7527 H   0  0  0  1  0  0  0  0  0  0  0  0
    5.3215    1.5672    5.1986 H   0  0  0  1  0  0  0  0  0  0  0  0
    0.4076   -5.3110    0.1111 H   0  0  0  1  0  0  0  0  0  0  0  0
    1.3839   -4.7981   -1.2446 H   0  0  0  1  0  0  0  0  0  0  0  0
   -0.1118   -6.0262   -2.7424 H   0  0  0  1  0  0  0  0  0  0  0  0
   -1.0007   -6.5939   -1.3489 H   0  0  0  1  0  0  0  0  0  0  0  0
  1 34  1  0  0  0  0
  2  4  1  0  0  0  0
  3  4  1  0  0  0  0
  4  5  1  0  0  0  0
  4 32  1  0  0  0  0
  6 10  1  0  0  0  0
  6 26  1  0  0  0  0
  6 42  1  0  0  0  0
  7  8  1  0  0  0  0
  7  9  2  0  0  0  0
  7 13  1  0  0  0  0
  8 43  1  0  0  0  0
  8 44  1  0  0  0  0
  8 45  1  0  0  0  0
 10 46  1  0  0  0  0
 10 47  1  0  0  0  0
 10 48  1  0  0  0  0
 11 27  1  0  0  0  0
 11 49  1  0  0  0  0
 12 26  2  0  0  0  0
 13 23  1  0  0  0  0
 13 50  1  0  0  0  0
 14 41  1  0  0  0  0
 15 24  1  0  0  0  0
 15 32  4  0  0  0  0
 15 34  4  0  0  0  0
 16 41  2  0  0  0  0
 17 18  1  0  0  0  0
 17 20  1  0  0  0  0
 17 51  1  0  0  0  0
 17 52  1  0  0  0  0
 18 23  1  0  0  0  0
 18 53  1  0  0  0  0
 18 54  1  0  0  0  0
 19 21  4  0  0  0  0
 19 29  1  0  0  0  0
 19 32  4  0  0  0  0
 20 24  1  0  0  0  0
 20 55  1  0  0  0  0
 20 56  1  0  0  0  0
 21 25  1  0  0  0  0
 21 34  4  0  0  0  0
 22 27  1  0  0  0  0
 22 28  1  0  0  0  0
 22 57  1  0  0  0  0
 22 58  1  0  0  0  0
 23 26  1  0  0  0  0
 23 59  1  0  0  0  0
 24 60  1  0  0  0  0
 24 61  1  0  0  0  0
 25 35  1  0  0  0  0
 25 62  1  0  0  0  0
 25 63  1  0  0  0  0
 27 31  1  0  0  0  0
 27 64  1  0  0  0  0
 28 30  1  0  0  0  0
 28 65  1  0  0  0  0
 28 66  1  0  0  0  0
 29 31  2  0  0  0  0
 29 67  1  0  0  0  0
 30 33  1  0  0  0  0
 30 68  1  0  0  0  0
 30 69  1  0  0  0  0
 31 70  1  0  0  0  0
 33 38  1  0  0  0  0
 33 71  1  0  0  0  0
 33 72  1  0  0  0  0
 35 36  2  0  0  0  0
 35 73  1  0  0  0  0
 36 37  1  0  0  0  0
 36 74  1  0  0  0  0
 37 39  1  0  0  0  0
 37 75  1  0  0  0  0
 37 76  1  0  0  0  0
 38 77  1  0  0  0  0
 38 78  1  0  0  0  0
 38 79  1  0  0  0  0
 39 40  1  0  0  0  0
 39 80  1  0  0  0  0
 39 81  1  0  0  0  0
 40 41  1  0  0  0  0
 40 82  1  0  0  0  0
 40 83  1  0  0  0  0
M  END
> <ConfClashScore>
0 

> <ConfOneFourInteractionScore>
-0.979327 

> <ConfScore>
0.0555345 

> <ConfScorePBest>
0.00430222 

> <ConfTolerance>
2.0129 

$$$$
9548876
  PyMOL2.2          3D                             0

 83 83  0  0  0  0  0  0  0  0999 V2000
   -5.0028   -1.0565   -0.1079 H   0  0  0  1  0  0  0  0  0  0  0  0
   -2.1856    3.4671    0.2224 H   0  0  0  1  0  0  0  0  0  0  0  0
   -3.9038    3.6762    0.4597 H   0  0  0  1  0  0  0  0  0  0  0  0
   -3.1565    3.1893   -0.1312 C   0  0  0  1  0  0  0  0  0  0  0  0
   -3.2613    3.4850   -1.1542 H   0  0  0  1  0  0  0  0  0  0  0  0
  -10.3695    1.5281    4.4925 N   0  0  0  1  0  0  0  0  0  0  0  0
   -9.0331    3.7807    1.7260 C   0  0  0  1  0  0  0  0  0  0  0  0
   -8.7334    5.2174    2.1070 C   0  0  0  1  0  0  0  0  0  0  0  0
   -9.4291    3.4914    0.6089 O   0  0  0  1  0  0  0  0  0  0  0  0
  -11.3645    1.0442    5.4378 C   0  0  0  1  0  0  0  0  0  0  0  0
    1.3841    1.8542    1.7088 O   0  0  0  1  0  0  0  0  0  0  0  0
  -10.8485   -0.0562    2.9604 O   0  0  0  1  0  0  0  0  0  0  0  0
   -8.8344    2.8680    2.6901 N   0  0  0  1  0  0  0  0  0  0  0  0
   -2.8287   -6.6109   -0.3805 O   0  5  0  1  0  0  0  0  0  0  0  0
   -4.4927    1.0417   -0.2078 N   0  0  0  1  0  0  0  0  0  0  0  0
   -2.1666   -4.4542   -0.0891 O   0  0  0  1  0  0  0  0  0  0  0  0
   -6.6012    1.1902    1.8088 C   0  0  0  1  0  0  0  0  0  0  0  0
   -7.7403    0.6809    2.6769 C   0  0  0  1  0  0  0  0  0  0  0  0
   -2.3403    0.7785    0.2803 C   0  0  0  1  0  0  0  0  0  0  0  0
   -6.9143    1.1545    0.3219 C   0  0  0  1  0  0  0  0  0  0  0  0
   -2.9498   -0.4847    0.2765 C   0  0  0  1  0  0  0  0  0  0  0  0
    1.8277   -0.4926    2.1385 C   0  0  0  1  0  0  0  0  0  0  0  0
   -9.0488    1.4455    2.4701 C   0  0  0  1  0  0  0  0  0  0  0  0
   -5.7743    1.6614   -0.5463 C   0  0  0  1  0  0  0  0  0  0  0  0
   -2.2683   -1.8034    0.5559 C   0  0  0  1  0  0  0  0  0  0  0  0
  -10.1636    0.8778    3.3436 C   0  0  0  1  0  0  0  0  0  0  0  0
    1.4460    0.5733    1.1228 C   0  0  0  1  0  0  0  0  0  0  0  0
    3.1104   -0.1137    2.8608 C   0  0  0  1  0  0  0  0  0  0  0  0
   -0.9314    1.0479    0.5536 C   0  0  0  1  0  0  0  0  0  0  0  0
    3.5280   -1.1235    3.9161 C   0  0  0  1  0  0  0  0  0  0  0  0
    0.1135    0.2558    0.5219 C   0  0  0  1  0  0  0  0  0  0  0  0
   -3.3217    1.7125   -0.0220 C   0  0  0  1  0  0  0  0  0  0  0  0
    4.7064   -0.6625    4.7583 C   0  0  0  1  0  0  0  0  0  0  0  0
   -4.2854   -0.3078   -0.0284 C   0  0  0  1  0  0  0  0  0  0  0  0
   -2.1215   -2.1313    2.0030 C   0  0  0  1  0  0  0  0  0  0  0  0
   -2.6591   -3.1031    2.6970 C   0  0  0  1  0  0  0  0  0  0  0  0
   -3.8006   -3.9915    2.2804 C   0  0  0  1  0  0  0  0  0  0  0  0
    5.0377   -1.6091    5.9005 C   0  0  0  1  0  0  0  0  0  0  0  0
   -3.4936   -5.4466    2.5947 C   0  0  0  1  0  0  0  0  0  0  0  0
   -2.2824   -5.9234    1.8098 C   0  0  0  1  0  0  0  0  0  0  0  0
   -2.4082   -5.5581    0.3708 C   0  0  0  1  0  0  0  0  0  0  0  0
   -9.8494    2.3326    4.6990 H   0  0  0  1  0  0  0  0  0  0  0  0
   -9.3448    5.5015    2.9379 H   0  0  0  1  0  0  0  0  0  0  0  0
   -8.9421    5.8576    1.2755 H   0  0  0  1  0  0  0  0  0  0  0  0
   -7.7018    5.3068    2.3766 H   0  0  0  1  0  0  0  0  0  0  0  0
  -11.6905    1.8526    6.0583 H   0  0  0  1  0  0  0  0  0  0  0  0
  -10.9336    0.2779    6.0478 H   0  0  0  1  0  0  0  0  0  0  0  0
  -12.2010    0.6462    4.9023 H   0  0  0  1  0  0  0  0  0  0  0  0
    1.7473    2.5026    1.1011 H   0  0  0  1  0  0  0  0  0  0  0  0
   -8.5346    3.1701    3.5729 H   0  0  0  1  0  0  0  0  0  0  0  0
   -5.7394    0.5820    1.9888 H   0  0  0  1  0  0  0  0  0  0  0  0
   -6.3889    2.2015    2.0866 H   0  0  0  1  0  0  0  0  0  0  0  0
   -7.4520    0.7731    3.7032 H   0  0  0  1  0  0  0  0  0  0  0  0
   -7.9092   -0.3498    2.4445 H   0  0  0  1  0  0  0  0  0  0  0  0
   -7.7749    1.7642    0.1417 H   0  0  0  1  0  0  0  0  0  0  0  0
   -7.1284    0.1435    0.0444 H   0  0  0  1  0  0  0  0  0  0  0  0
    1.9722   -1.4240    1.6321 H   0  0  0  1  0  0  0  0  0  0  0  0
    1.0388   -0.5937    2.8542 H   0  0  0  1  0  0  0  0  0  0  0  0
   -9.3407    1.3056    1.4503 H   0  0  0  1  0  0  0  0  0  0  0  0
   -6.0001    1.4449   -1.5696 H   0  0  0  1  0  0  0  0  0  0  0  0
   -5.6884    2.7199   -0.4158 H   0  0  0  1  0  0  0  0  0  0  0  0
   -1.2916   -1.7732    0.1198 H   0  0  0  1  0  0  0  0  0  0  0  0
   -2.8418   -2.5798    0.0942 H   0  0  0  1  0  0  0  0  0  0  0  0
    2.1761    0.5681    0.3406 H   0  0  0  1  0  0  0  0  0  0  0  0
    2.9647    0.8336    3.3364 H   0  0  0  1  0  0  0  0  0  0  0  0
    3.8956   -0.0337    2.1383 H   0  0  0  1  0  0  0  0  0  0  0  0
   -0.7216    2.0318    0.8173 H   0  0  0  1  0  0  0  0  0  0  0  0
    3.7978   -2.0352    3.4254 H   0  0  0  1  0  0  0  0  0  0  0  0
    2.6957   -1.2999    4.5650 H   0  0  0  1  0  0  0  0  0  0  0  0
    0.0077   -0.6615    0.0434 H   0  0  0  1  0  0  0  0  0  0  0  0
    4.4743    0.2975    5.1698 H   0  0  0  1  0  0  0  0  0  0  0  0
    5.5650   -0.5816    4.1249 H   0  0  0  1  0  0  0  0  0  0  0  0
   -1.5003   -1.4939    2.5409 H   0  0  0  1  0  0  0  0  0  0  0  0
   -2.2533   -3.2803    3.6380 H   0  0  0  1  0  0  0  0  0  0  0  0
   -3.9610   -3.8862    1.2277 H   0  0  0  1  0  0  0  0  0  0  0  0
   -4.6843   -3.6976    2.8074 H   0  0  0  1  0  0  0  0  0  0  0  0
    4.1734   -1.7409    6.5173 H   0  0  0  1  0  0  0  0  0  0  0  0
    5.8335   -1.1973    6.4853 H   0  0  0  1  0  0  0  0  0  0  0  0
    5.3395   -2.5556    5.5029 H   0  0  0  1  0  0  0  0  0  0  0  0
   -4.3395   -6.0478    2.3341 H   0  0  0  1  0  0  0  0  0  0  0  0
   -3.2944   -5.5449    3.6414 H   0  0  0  1  0  0  0  0  0  0  0  0
   -2.2049   -6.9871    1.8963 H   0  0  0  1  0  0  0  0  0  0  0  0
   -1.4020   -5.4672    2.2119 H   0  0  0  1  0  0  0  0  0  0  0  0
  1 34  1  0  0  0  0
  2  4  1  0  0  0  0
  3  4  1  0  0  0  0
  4  5  1  0  0  0  0
  4 32  1  0  0  0  0
  6 10  1  0  0  0  0
  6 26  1  0  0  0  0
  6 42  1  0  0  0  0
  7  8  1  0  0  0  0
  7  9  2  0  0  0  0
  7 13  1  0  0  0  0
  8 43  1  0  0  0  0
  8 44  1  0  0  0  0
  8 45  1  0  0  0  0
 10 46  1  0  0  0  0
 10 47  1  0  0  0  0
 10 48  1  0  0  0  0
 11 27  1  0  0  0  0
 11 49  1  0  0  0  0
 12 26  2  0  0  0  0
 13 23  1  0  0  0  0
 13 50  1  0  0  0  0
 14 41  1  0  0  0  0
 15 24  1  0  0  0  0
 15 32  4  0  0  0  0
 15 34  4  0  0  0  0
 16 41  2  0  0  0  0
 17 18  1  0  0  0  0
 17 20  1  0  0  0  0
 17 51  1  0  0  0  0
 17 52  1  0  0  0  0
 18 23  1  0  0  0  0
 18 53  1  0  0  0  0
 18 54  1  0  0  0  0
 19 21  4  0  0  0  0
 19 29  1  0  0  0  0
 19 32  4  0  0  0  0
 20 24  1  0  0  0  0
 20 55  1  0  0  0  0
 20 56  1  0  0  0  0
 21 25  1  0  0  0  0
 21 34  4  0  0  0  0
 22 27  1  0  0  0  0
 22 28  1  0  0  0  0
 22 57  1  0  0  0  0
 22 58  1  0  0  0  0
 23 26  1  0  0  0  0
 23 59  1  0  0  0  0
 24 60  1  0  0  0  0
 24 61  1  0  0  0  0
 25 35  1  0  0  0  0
 25 62  1  0  0  0  0
 25 63  1  0  0  0  0
 27 31  1  0  0  0  0
 27 64  1  0  0  0  0
 28 30  1  0  0  0  0
 28 65  1  0  0  0  0
 28 66  1  0  0  0  0
 29 31  2  0  0  0  0
 29 67  1  0  0  0  0
 30 33  1  0  0  0  0
 30 68  1  0  0  0  0
 30 69  1  0  0  0  0
 31 70  1  0  0  0  0
 33 38  1  0  0  0  0
 33 71  1  0  0  0  0
 33 72  1  0  0  0  0
 35 36  2  0  0  0  0
 35 73  1  0  0  0  0
 36 37  1  0  0  0  0
 36 74  1  0  0  0  0
 37 39  1  0  0  0  0
 37 75  1  0  0  0  0
 37 76  1  0  0  0  0
 38 77  1  0  0  0  0
 38 78  1  0  0  0  0
 38 79  1  0  0  0  0
 39 40  1  0  0  0  0
 39 80  1  0  0  0  0
 39 81  1  0  0  0  0
 40 41  1  0  0  0  0
 40 82  1  0  0  0  0
 40 83  1  0  0  0  0
M  END
> <ConfClashScore>
0 

> <ConfOneFourInteractionScore>
-0.989929 

> <ConfScore>
0.0584932 

> <ConfScorePBest>
0.00427374 

> <ConfTolerance>
2.1307 

$$$$
9548876
  PyMOL2.2          3D                             0

 83 83  0  0  0  0  0  0  0  0999 V2000
   -5.0166   -1.0215   -0.0807 H   0  0  0  1  0  0  0  0  0  0  0  0
   -3.7948    3.5117   -0.9570 H   0  0  0  1  0  0  0  0  0  0  0  0
   -2.1722    3.4758   -0.3101 H   0  0  0  1  0  0  0  0  0  0  0  0
   -3.1887    3.1905   -0.1358 C   0  0  0  1  0  0  0  0  0  0  0  0
   -3.5386    3.6482    0.7658 H   0  0  0  1  0  0  0  0  0  0  0  0
   -5.1413    3.9296   -6.2782 N   0  0  0  1  0  0  0  0  0  0  0  0
   -2.2620    5.2942   -3.5326 C   0  0  0  1  0  0  0  0  0  0  0  0
   -1.4219    6.3013   -2.7714 C   0  0  0  1  0  0  0  0  0  0  0  0
   -1.7521    4.5164   -4.3380 O   0  0  0  1  0  0  0  0  0  0  0  0
   -5.4108    4.2195   -7.6786 C   0  0  0  1  0  0  0  0  0  0  0  0
    1.3084    0.8252    3.2719 O   0  0  0  1  0  0  0  0  0  0  0  0
   -4.2430    5.9340   -5.8349 O   0  0  0  1  0  0  0  0  0  0  0  0
   -3.5779    5.3137   -3.2679 N   0  0  0  1  0  0  0  0  0  0  0  0
   -7.8154   -2.8520   -2.3248 O   0  5  0  1  0  0  0  0  0  0  0  0
   -4.4604    1.0649   -0.1804 N   0  0  0  1  0  0  0  0  0  0  0  0
   -8.4073   -4.1004   -0.5177 O   0  0  0  1  0  0  0  0  0  0  0  0
   -5.9176    3.8954   -1.9152 C   0  0  0  1  0  0  0  0  0  0  0  0
   -5.9121    4.4675   -3.3245 C   0  0  0  1  0  0  0  0  0  0  0  0
   -2.3095    0.7518    0.2841 C   0  0  0  1  0  0  0  0  0  0  0  0
   -5.5697    2.4275   -1.9326 C   0  0  0  1  0  0  0  0  0  0  0  0
   -2.9473   -0.4972    0.2834 C   0  0  0  1  0  0  0  0  0  0  0  0
    2.3529   -0.1871    1.3978 C   0  0  0  1  0  0  0  0  0  0  0  0
   -4.5257    4.4655   -3.9750 C   0  0  0  1  0  0  0  0  0  0  0  0
   -5.7061    1.7070   -0.6012 C   0  0  0  1  0  0  0  0  0  0  0  0
   -2.2927   -1.8318    0.5518 C   0  0  0  1  0  0  0  0  0  0  0  0
   -4.5970    4.8301   -5.4549 C   0  0  0  1  0  0  0  0  0  0  0  0
    1.2412    0.7645    1.8505 C   0  0  0  1  0  0  0  0  0  0  0  0
    3.7502    0.3533    1.6545 C   0  0  0  1  0  0  0  0  0  0  0  0
   -0.8926    0.9887    0.5430 C   0  0  0  1  0  0  0  0  0  0  0  0
    4.8422   -0.5170    1.0835 C   0  0  0  1  0  0  0  0  0  0  0  0
   -0.1061    0.3362    1.3619 C   0  0  0  1  0  0  0  0  0  0  0  0
   -3.2727    1.7086   -0.0052 C   0  0  0  1  0  0  0  0  0  0  0  0
    6.2515    0.0401    1.2009 C   0  0  0  1  0  0  0  0  0  0  0  0
   -4.2817   -0.2894   -0.0068 C   0  0  0  1  0  0  0  0  0  0  0  0
   -2.4940   -2.8511   -0.5241 C   0  0  0  1  0  0  0  0  0  0  0  0
   -3.2786   -3.9707   -0.4073 C   0  0  0  1  0  0  0  0  0  0  0  0
   -4.2355   -3.9859    0.7547 C   0  0  0  1  0  0  0  0  0  0  0  0
    7.3091   -0.8611    0.5847 C   0  0  0  1  0  0  0  0  0  0  0  0
   -5.6819   -4.2105    0.3336 C   0  0  0  1  0  0  0  0  0  0  0  0
   -6.2020   -3.1508   -0.6289 C   0  0  0  1  0  0  0  0  0  0  0  0
   -7.5811   -3.4326   -1.1175 C   0  0  0  1  0  0  0  0  0  0  0  0
   -5.3670    3.0430   -5.9268 H   0  0  0  1  0  0  0  0  0  0  0  0
   -1.9941    6.7047   -1.9622 H   0  0  0  1  0  0  0  0  0  0  0  0
   -1.1296    7.0921   -3.4303 H   0  0  0  1  0  0  0  0  0  0  0  0
   -0.5493    5.8177   -2.3846 H   0  0  0  1  0  0  0  0  0  0  0  0
   -6.4682    4.2513   -7.8397 H   0  0  0  1  0  0  0  0  0  0  0  0
   -4.9800    3.4545   -8.2903 H   0  0  0  1  0  0  0  0  0  0  0  0
   -4.9825    5.1657   -7.9355 H   0  0  0  1  0  0  0  0  0  0  0  0
    1.8692    0.1169    3.5967 H   0  0  0  1  0  0  0  0  0  0  0  0
   -3.9119    5.9202   -2.5743 H   0  0  0  1  0  0  0  0  0  0  0  0
   -6.8915    4.0201   -1.4898 H   0  0  0  1  0  0  0  0  0  0  0  0
   -5.1985    4.4194   -1.3210 H   0  0  0  1  0  0  0  0  0  0  0  0
   -6.2657    5.4765   -3.2824 H   0  0  0  1  0  0  0  0  0  0  0  0
   -6.5720    3.8827   -3.9306 H   0  0  0  1  0  0  0  0  0  0  0  0
   -4.5540    2.3334   -2.2557 H   0  0  0  1  0  0  0  0  0  0  0  0
   -6.2147    1.9443   -2.6364 H   0  0  0  1  0  0  0  0  0  0  0  0
    2.2440   -0.3609    0.3476 H   0  0  0  1  0  0  0  0  0  0  0  0
    2.2443   -1.1113    1.9259 H   0  0  0  1  0  0  0  0  0  0  0  0
   -4.1626    3.4604   -3.9219 H   0  0  0  1  0  0  0  0  0  0  0  0
   -5.9947    2.4174    0.1451 H   0  0  0  1  0  0  0  0  0  0  0  0
   -6.4641    0.9575   -0.6930 H   0  0  0  1  0  0  0  0  0  0  0  0
   -2.6953   -2.2237    1.4624 H   0  0  0  1  0  0  0  0  0  0  0  0
   -1.2411   -1.6707    0.6664 H   0  0  0  1  0  0  0  0  0  0  0  0
    1.4503    1.7321    1.4444 H   0  0  0  1  0  0  0  0  0  0  0  0
    3.8954    0.4299    2.7118 H   0  0  0  1  0  0  0  0  0  0  0  0
    3.8247    1.3248    1.2124 H   0  0  0  1  0  0  0  0  0  0  0  0
   -0.4550    1.7695    0.0134 H   0  0  0  1  0  0  0  0  0  0  0  0
    4.6334   -0.6691    0.0452 H   0  0  0  1  0  0  0  0  0  0  0  0
    4.8157   -1.4567    1.5945 H   0  0  0  1  0  0  0  0  0  0  0  0
   -0.4563   -0.5790    1.7103 H   0  0  0  1  0  0  0  0  0  0  0  0
    6.4795    0.1705    2.2382 H   0  0  0  1  0  0  0  0  0  0  0  0
    6.2838    0.9884    0.7062 H   0  0  0  1  0  0  0  0  0  0  0  0
   -2.0027   -2.7000   -1.4282 H   0  0  0  1  0  0  0  0  0  0  0  0
   -3.2160   -4.7608   -1.0806 H   0  0  0  1  0  0  0  0  0  0  0  0
   -4.1704   -3.0459    1.2617 H   0  0  0  1  0  0  0  0  0  0  0  0
   -3.9490   -4.7720    1.4216 H   0  0  0  1  0  0  0  0  0  0  0  0
    8.2785   -0.4404    0.7520 H   0  0  0  1  0  0  0  0  0  0  0  0
    7.1347   -0.9474   -0.4674 H   0  0  0  1  0  0  0  0  0  0  0  0
    7.2584   -1.8301    1.0358 H   0  0  0  1  0  0  0  0  0  0  0  0
   -6.2955   -4.2031    1.2101 H   0  0  0  1  0  0  0  0  0  0  0  0
   -5.7519   -5.1657   -0.1435 H   0  0  0  1  0  0  0  0  0  0  0  0
   -5.5448   -3.1044   -1.4720 H   0  0  0  1  0  0  0  0  0  0  0  0
   -6.2052   -2.2062   -0.1262 H   0  0  0  1  0  0  0  0  0  0  0  0
  1 34  1  0  0  0  0
  2  4  1  0  0  0  0
  3  4  1  0  0  0  0
  4  5  1  0  0  0  0
  4 32  1  0  0  0  0
  6 10  1  0  0  0  0
  6 26  1  0  0  0  0
  6 42  1  0  0  0  0
  7  8  1  0  0  0  0
  7  9  2  0  0  0  0
  7 13  1  0  0  0  0
  8 43  1  0  0  0  0
  8 44  1  0  0  0  0
  8 45  1  0  0  0  0
 10 46  1  0  0  0  0
 10 47  1  0  0  0  0
 10 48  1  0  0  0  0
 11 27  1  0  0  0  0
 11 49  1  0  0  0  0
 12 26  2  0  0  0  0
 13 23  1  0  0  0  0
 13 50  1  0  0  0  0
 14 41  1  0  0  0  0
 15 24  1  0  0  0  0
 15 32  4  0  0  0  0
 15 34  4  0  0  0  0
 16 41  2  0  0  0  0
 17 18  1  0  0  0  0
 17 20  1  0  0  0  0
 17 51  1  0  0  0  0
 17 52  1  0  0  0  0
 18 23  1  0  0  0  0
 18 53  1  0  0  0  0
 18 54  1  0  0  0  0
 19 21  4  0  0  0  0
 19 29  1  0  0  0  0
 19 32  4  0  0  0  0
 20 24  1  0  0  0  0
 20 55  1  0  0  0  0
 20 56  1  0  0  0  0
 21 25  1  0  0  0  0
 21 34  4  0  0  0  0
 22 27  1  0  0  0  0
 22 28  1  0  0  0  0
 22 57  1  0  0  0  0
 22 58  1  0  0  0  0
 23 26  1  0  0  0  0
 23 59  1  0  0  0  0
 24 60  1  0  0  0  0
 24 61  1  0  0  0  0
 25 35  1  0  0  0  0
 25 62  1  0  0  0  0
 25 63  1  0  0  0  0
 27 31  1  0  0  0  0
 27 64  1  0  0  0  0
 28 30  1  0  0  0  0
 28 65  1  0  0  0  0
 28 66  1  0  0  0  0
 29 31  2  0  0  0  0
 29 67  1  0  0  0  0
 30 33  1  0  0  0  0
 30 68  1  0  0  0  0
 30 69  1  0  0  0  0
 31 70  1  0  0  0  0
 33 38  1  0  0  0  0
 33 71  1  0  0  0  0
 33 72  1  0  0  0  0
 35 36  2  0  0  0  0
 35 73  1  0  0  0  0
 36 37  1  0  0  0  0
 36 74  1  0  0  0  0
 37 39  1  0  0  0  0
 37 75  1  0  0  0  0
 37 76  1  0  0  0  0
 38 77  1  0  0  0  0
 38 78  1  0  0  0  0
 38 79  1  0  0  0  0
 39 40  1  0  0  0  0
 39 80  1  0  0  0  0
 39 81  1  0  0  0  0
 40 41  1  0  0  0  0
 40 82  1  0  0  0  0
 40 83  1  0  0  0  0
M  END
> <ConfClashScore>
0.000255766 

> <ConfOneFourInteractionScore>
-0.991079 

> <ConfScore>
0.0593639 

> <ConfScorePBest>
0.00424526 

> <ConfTolerance>
1.99804 

$$$$
9548876
  PyMOL2.2          3D                             0

 83 83  0  0  0  0  0  0  0  0999 V2000
   -5.0078   -1.0455   -0.0775 H   0  0  0  1  0  0  0  0  0  0  0  0
   -4.0902    3.6461    0.2014 H   0  0  0  1  0  0  0  0  0  0  0  0
   -3.0084    3.4476   -1.1561 H   0  0  0  1  0  0  0  0  0  0  0  0
   -3.1831    3.1876   -0.1330 C   0  0  0  1  0  0  0  0  0  0  0  0
   -2.3672    3.5321    0.4674 H   0  0  0  1  0  0  0  0  0  0  0  0
  -12.5890    1.7080    1.3917 N   0  0  0  1  0  0  0  0  0  0  0  0
  -11.6851    4.4666   -0.4277 C   0  0  0  1  0  0  0  0  0  0  0  0
  -11.5748    5.8732   -0.9829 C   0  0  0  1  0  0  0  0  0  0  0  0
  -12.7301    3.8239   -0.5200 O   0  0  0  1  0  0  0  0  0  0  0  0
  -13.6198    1.3903    2.3687 C   0  0  0  1  0  0  0  0  0  0  0  0
    1.8284    0.5985    2.6950 O   0  0  0  1  0  0  0  0  0  0  0  0
  -11.2195    2.5610    2.9468 O   0  0  0  1  0  0  0  0  0  0  0  0
  -10.5795    3.9835    0.1608 N   0  0  0  1  0  0  0  0  0  0  0  0
    0.6124   -6.8712    3.6041 O   0  5  0  1  0  0  0  0  0  0  0  0
   -4.4788    1.0478   -0.1820 N   0  0  0  1  0  0  0  0  0  0  0  0
   -1.0300   -8.1359    2.6362 O   0  0  0  1  0  0  0  0  0  0  0  0
   -7.9534    2.6202    0.1319 C   0  0  0  1  0  0  0  0  0  0  0  0
   -9.0145    2.4215    1.2033 C   0  0  0  1  0  0  0  0  0  0  0  0
   -2.3233    0.7635    0.2795 C   0  0  0  1  0  0  0  0  0  0  0  0
   -6.6427    2.0062    0.5569 C   0  0  0  1  0  0  0  0  0  0  0  0
   -2.9448   -0.4937    0.2822 C   0  0  0  1  0  0  0  0  0  0  0  0
    1.9983   -0.9656    0.9287 C   0  0  0  1  0  0  0  0  0  0  0  0
  -10.4399    2.6373    0.6925 C   0  0  0  1  0  0  0  0  0  0  0  0
   -5.7070    1.7224   -0.6034 C   0  0  0  1  0  0  0  0  0  0  0  0
   -2.2706   -1.8230    0.5529 C   0  0  0  1  0  0  0  0  0  0  0  0
  -11.4677    2.3246    1.7760 C   0  0  0  1  0  0  0  0  0  0  0  0
    1.3572    0.3490    1.3839 C   0  0  0  1  0  0  0  0  0  0  0  0
    3.5171   -0.9929    0.9464 C   0  0  0  1  0  0  0  0  0  0  0  0
   -0.9109    1.0189    0.5353 C   0  0  0  1  0  0  0  0  0  0  0  0
    4.1042   -2.2458    0.3190 C   0  0  0  1  0  0  0  0  0  0  0  0
   -0.1364    0.3059    1.3142 C   0  0  0  1  0  0  0  0  0  0  0  0
   -3.2993    1.7072   -0.0100 C   0  0  0  1  0  0  0  0  0  0  0  0
    5.6237   -2.2774    0.3449 C   0  0  0  1  0  0  0  0  0  0  0  0
   -4.2823   -0.3037   -0.0062 C   0  0  0  1  0  0  0  0  0  0  0  0
   -2.9009   -2.6295    1.6436 C   0  0  0  1  0  0  0  0  0  0  0  0
   -3.2310   -3.8982    1.5987 C   0  0  0  1  0  0  0  0  0  0  0  0
   -2.7563   -4.8747    0.5560 C   0  0  0  1  0  0  0  0  0  0  0  0
    6.2093   -3.5633   -0.2154 C   0  0  0  1  0  0  0  0  0  0  0  0
   -2.1144   -6.1426    1.0951 C   0  0  0  1  0  0  0  0  0  0  0  0
   -0.9680   -5.8757    2.0567 C   0  0  0  1  0  0  0  0  0  0  0  0
   -0.4628   -7.0675    2.7946 C   0  0  0  1  0  0  0  0  0  0  0  0
  -12.7176    1.4691    0.4500 H   0  0  0  1  0  0  0  0  0  0  0  0
  -11.1780    5.8352   -1.9759 H   0  0  0  1  0  0  0  0  0  0  0  0
  -10.9241    6.4518   -0.3610 H   0  0  0  1  0  0  0  0  0  0  0  0
  -12.5444    6.3253   -1.0036 H   0  0  0  1  0  0  0  0  0  0  0  0
  -14.4872    1.0184    1.8646 H   0  0  0  1  0  0  0  0  0  0  0  0
  -13.8766    2.2733    2.9157 H   0  0  0  1  0  0  0  0  0  0  0  0
  -13.2534    0.6457    3.0441 H   0  0  0  1  0  0  0  0  0  0  0  0
    1.9762    1.5402    2.8087 H   0  0  0  1  0  0  0  0  0  0  0  0
   -9.8083    4.5833    0.2379 H   0  0  0  1  0  0  0  0  0  0  0  0
   -7.8130    3.6681   -0.0327 H   0  0  0  1  0  0  0  0  0  0  0  0
   -8.2801    2.1568   -0.7756 H   0  0  0  1  0  0  0  0  0  0  0  0
   -8.8297    3.1154    1.9966 H   0  0  0  1  0  0  0  0  0  0  0  0
   -8.9358    1.4221    1.5774 H   0  0  0  1  0  0  0  0  0  0  0  0
   -6.8473    1.0847    1.0609 H   0  0  0  1  0  0  0  0  0  0  0  0
   -6.1545    2.6802    1.2294 H   0  0  0  1  0  0  0  0  0  0  0  0
    1.6768   -1.1595   -0.0732 H   0  0  0  1  0  0  0  0  0  0  0  0
    1.6472   -1.7440    1.5734 H   0  0  0  1  0  0  0  0  0  0  0  0
  -10.5992    1.9441   -0.1070 H   0  0  0  1  0  0  0  0  0  0  0  0
   -6.2154    1.0995   -1.3094 H   0  0  0  1  0  0  0  0  0  0  0  0
   -5.4463    2.6502   -1.0684 H   0  0  0  1  0  0  0  0  0  0  0  0
   -1.2533   -1.6321    0.8242 H   0  0  0  1  0  0  0  0  0  0  0  0
   -2.2978   -2.4005   -0.3475 H   0  0  0  1  0  0  0  0  0  0  0  0
    1.6978    1.1245    0.7300 H   0  0  0  1  0  0  0  0  0  0  0  0
    3.8457   -0.9367    1.9631 H   0  0  0  1  0  0  0  0  0  0  0  0
    3.8780   -0.1423    0.4069 H   0  0  0  1  0  0  0  0  0  0  0  0
   -0.4817    1.8374    0.0584 H   0  0  0  1  0  0  0  0  0  0  0  0
    3.7811   -2.2984   -0.6997 H   0  0  0  1  0  0  0  0  0  0  0  0
    3.7380   -3.0968    0.8543 H   0  0  0  1  0  0  0  0  0  0  0  0
   -0.6112   -0.3629    1.9536 H   0  0  0  1  0  0  0  0  0  0  0  0
    5.9480   -2.1705    1.3589 H   0  0  0  1  0  0  0  0  0  0  0  0
    5.9900   -1.4566   -0.2356 H   0  0  0  1  0  0  0  0  0  0  0  0
   -3.0988   -2.1303    2.5342 H   0  0  0  1  0  0  0  0  0  0  0  0
   -3.8682   -4.2562    2.3386 H   0  0  0  1  0  0  0  0  0  0  0  0
   -2.0368   -4.3764   -0.0596 H   0  0  0  1  0  0  0  0  0  0  0  0
   -3.5994   -5.1586   -0.0385 H   0  0  0  1  0  0  0  0  0  0  0  0
    7.2736   -3.5483   -0.1064 H   0  0  0  1  0  0  0  0  0  0  0  0
    5.9583   -3.6471   -1.2522 H   0  0  0  1  0  0  0  0  0  0  0  0
    5.8081   -4.3996    0.3179 H   0  0  0  1  0  0  0  0  0  0  0  0
   -1.7394   -6.7105    0.2694 H   0  0  0  1  0  0  0  0  0  0  0  0
   -2.8626   -6.7099    1.6082 H   0  0  0  1  0  0  0  0  0  0  0  0
   -1.3017   -5.1585    2.7772 H   0  0  0  1  0  0  0  0  0  0  0  0
   -0.1546   -5.4660    1.4951 H   0  0  0  1  0  0  0  0  0  0  0  0
  1 34  1  0  0  0  0
  2  4  1  0  0  0  0
  3  4  1  0  0  0  0
  4  5  1  0  0  0  0
  4 32  1  0  0  0  0
  6 10  1  0  0  0  0
  6 26  1  0  0  0  0
  6 42  1  0  0  0  0
  7  8  1  0  0  0  0
  7  9  2  0  0  0  0
  7 13  1  0  0  0  0
  8 43  1  0  0  0  0
  8 44  1  0  0  0  0
  8 45  1  0  0  0  0
 10 46  1  0  0  0  0
 10 47  1  0  0  0  0
 10 48  1  0  0  0  0
 11 27  1  0  0  0  0
 11 49  1  0  0  0  0
 12 26  2  0  0  0  0
 13 23  1  0  0  0  0
 13 50  1  0  0  0  0
 14 41  1  0  0  0  0
 15 24  1  0  0  0  0
 15 32  4  0  0  0  0
 15 34  4  0  0  0  0
 16 41  2  0  0  0  0
 17 18  1  0  0  0  0
 17 20  1  0  0  0  0
 17 51  1  0  0  0  0
 17 52  1  0  0  0  0
 18 23  1  0  0  0  0
 18 53  1  0  0  0  0
 18 54  1  0  0  0  0
 19 21  4  0  0  0  0
 19 29  1  0  0  0  0
 19 32  4  0  0  0  0
 20 24  1  0  0  0  0
 20 55  1  0  0  0  0
 20 56  1  0  0  0  0
 21 25  1  0  0  0  0
 21 34  4  0  0  0  0
 22 27  1  0  0  0  0
 22 28  1  0  0  0  0
 22 57  1  0  0  0  0
 22 58  1  0  0  0  0
 23 26  1  0  0  0  0
 23 59  1  0  0  0  0
 24 60  1  0  0  0  0
 24 61  1  0  0  0  0
 25 35  1  0  0  0  0
 25 62  1  0  0  0  0
 25 63  1  0  0  0  0
 27 31  1  0  0  0  0
 27 64  1  0  0  0  0
 28 30  1  0  0  0  0
 28 65  1  0  0  0  0
 28 66  1  0  0  0  0
 29 31  2  0  0  0  0
 29 67  1  0  0  0  0
 30 33  1  0  0  0  0
 30 68  1  0  0  0  0
 30 69  1  0  0  0  0
 31 70  1  0  0  0  0
 33 38  1  0  0  0  0
 33 71  1  0  0  0  0
 33 72  1  0  0  0  0
 35 36  2  0  0  0  0
 35 73  1  0  0  0  0
 36 37  1  0  0  0  0
 36 74  1  0  0  0  0
 37 39  1  0  0  0  0
 37 75  1  0  0  0  0
 37 76  1  0  0  0  0
 38 77  1  0  0  0  0
 38 78  1  0  0  0  0
 38 79  1  0  0  0  0
 39 40  1  0  0  0  0
 39 80  1  0  0  0  0
 39 81  1  0  0  0  0
 40 41  1  0  0  0  0
 40 82  1  0  0  0  0
 40 83  1  0  0  0  0
M  END
> <ConfClashScore>
0 

> <ConfOneFourInteractionScore>
-0.991498 

> <ConfScore>
0.0598164 

> <ConfScorePBest>
0.00421678 

> <ConfTolerance>
1.64169 

$$$$
9548876
  PyMOL2.2          3D                             0

 83 83  0  0  0  0  0  0  0  0999 V2000
   -5.0050   -1.0000   -0.1040 H   0  0  0  1  0  0  0  0  0  0  0  0
   -4.1447    3.5554   -0.4867 H   0  0  0  1  0  0  0  0  0  0  0  0
   -2.4402    3.4654   -0.8597 H   0  0  0  1  0  0  0  0  0  0  0  0
   -3.1942    3.1989   -0.1488 C   0  0  0  1  0  0  0  0  0  0  0  0
   -2.9641    3.6404    0.7983 H   0  0  0  1  0  0  0  0  0  0  0  0
   -5.4326    0.2152   -7.4225 N   0  0  0  1  0  0  0  0  0  0  0  0
   -5.4095   -2.5854   -5.3761 C   0  0  0  1  0  0  0  0  0  0  0  0
   -4.1623   -3.4470   -5.3396 C   0  0  0  1  0  0  0  0  0  0  0  0
   -6.5023   -3.0583   -5.6768 O   0  0  0  1  0  0  0  0  0  0  0  0
   -5.5136    0.5857   -8.8275 C   0  0  0  1  0  0  0  0  0  0  0  0
    1.8705   -0.8203    2.1234 O   0  0  0  1  0  0  0  0  0  0  0  0
   -7.6478    0.2456   -7.0857 O   0  0  0  1  0  0  0  0  0  0  0  0
   -5.2350   -1.2983   -5.0630 N   0  0  0  1  0  0  0  0  0  0  0  0
   -6.5791   -1.9668    0.6793 O   0  5  0  1  0  0  0  0  0  0  0  0
   -4.4310    1.0819   -0.1978 N   0  0  0  1  0  0  0  0  0  0  0  0
   -5.3996   -3.8601    0.3246 O   0  0  0  1  0  0  0  0  0  0  0  0
   -5.9657    0.6648   -2.8693 C   0  0  0  1  0  0  0  0  0  0  0  0
   -6.0390    0.9423   -4.3584 C   0  0  0  1  0  0  0  0  0  0  0  0
   -2.2891    0.7522    0.2962 C   0  0  0  1  0  0  0  0  0  0  0  0
   -5.8828    1.9251   -2.0251 C   0  0  0  1  0  0  0  0  0  0  0  0
   -2.9367   -0.4918    0.2877 C   0  0  0  1  0  0  0  0  0  0  0  0
    2.3967    0.8292    0.4419 C   0  0  0  1  0  0  0  0  0  0  0  0
   -6.2974   -0.3148   -5.1994 C   0  0  0  1  0  0  0  0  0  0  0  0
   -5.7384    1.6461   -0.5388 C   0  0  0  1  0  0  0  0  0  0  0  0
   -2.3501   -1.8621    0.5579 C   0  0  0  1  0  0  0  0  0  0  0  0
   -6.5170    0.1043   -6.6500 C   0  0  0  1  0  0  0  0  0  0  0  0
    1.3827    0.3609    1.4899 C   0  0  0  1  0  0  0  0  0  0  0  0
    3.7732    1.1111    1.0196 C   0  0  0  1  0  0  0  0  0  0  0  0
   -0.8741    0.9781    0.5741 C   0  0  0  1  0  0  0  0  0  0  0  0
    3.7895    2.2749    1.9987 C   0  0  0  1  0  0  0  0  0  0  0  0
    0.0286    0.0924    0.9140 C   0  0  0  1  0  0  0  0  0  0  0  0
   -3.2408    1.7164   -0.0070 C   0  0  0  1  0  0  0  0  0  0  0  0
    3.4348    1.8716    3.4197 C   0  0  0  1  0  0  0  0  0  0  0  0
   -4.2654   -0.2736   -0.0208 C   0  0  0  1  0  0  0  0  0  0  0  0
   -1.8079   -2.0447    1.9376 C   0  0  0  1  0  0  0  0  0  0  0  0
   -2.2762   -2.9133    2.7741 C   0  0  0  1  0  0  0  0  0  0  0  0
   -3.1821   -4.0885    2.5286 C   0  0  0  1  0  0  0  0  0  0  0  0
    3.4383    3.0354    4.3943 C   0  0  0  1  0  0  0  0  0  0  0  0
   -4.5844   -3.9644    3.1098 C   0  0  0  1  0  0  0  0  0  0  0  0
   -5.3836   -2.8161    2.5156 C   0  0  0  1  0  0  0  0  0  0  0  0
   -5.7558   -2.9719    1.0813 C   0  0  0  1  0  0  0  0  0  0  0  0
   -4.5520    0.0410   -7.0293 H   0  0  0  1  0  0  0  0  0  0  0  0
   -4.4361   -4.4762   -5.4428 H   0  0  0  1  0  0  0  0  0  0  0  0
   -3.6577   -3.3043   -4.4069 H   0  0  0  1  0  0  0  0  0  0  0  0
   -3.5131   -3.1686   -6.1432 H   0  0  0  1  0  0  0  0  0  0  0  0
   -6.3133    1.2827   -8.9676 H   0  0  0  1  0  0  0  0  0  0  0  0
   -5.6955   -0.2887   -9.4168 H   0  0  0  1  0  0  0  0  0  0  0  0
   -4.5914    1.0355   -9.1312 H   0  0  0  1  0  0  0  0  0  0  0  0
    1.2308   -1.5282    2.0175 H   0  0  0  1  0  0  0  0  0  0  0  0
   -4.3607   -1.0069   -4.7298 H   0  0  0  1  0  0  0  0  0  0  0  0
   -5.0970    0.0702   -2.6773 H   0  0  0  1  0  0  0  0  0  0  0  0
   -6.8413    0.1210   -2.5820 H   0  0  0  1  0  0  0  0  0  0  0  0
   -5.1104    1.3734   -4.6693 H   0  0  0  1  0  0  0  0  0  0  0  0
   -6.8327    1.6378   -4.5353 H   0  0  0  1  0  0  0  0  0  0  0  0
   -6.7753    2.4952   -2.1781 H   0  0  0  1  0  0  0  0  0  0  0  0
   -5.0359    2.4942   -2.3474 H   0  0  0  1  0  0  0  0  0  0  0  0
    2.0280    1.7265   -0.0096 H   0  0  0  1  0  0  0  0  0  0  0  0
    2.4910    0.0671   -0.3032 H   0  0  0  1  0  0  0  0  0  0  0  0
   -7.2091   -0.7520   -4.8494 H   0  0  0  1  0  0  0  0  0  0  0  0
   -5.8658    2.5639   -0.0037 H   0  0  0  1  0  0  0  0  0  0  0  0
   -6.4983    0.9527   -0.2447 H   0  0  0  1  0  0  0  0  0  0  0  0
   -1.5543   -2.0275   -0.1380 H   0  0  0  1  0  0  0  0  0  0  0  0
   -3.1181   -2.5906    0.4020 H   0  0  0  1  0  0  0  0  0  0  0  0
    1.2843    1.1367    2.2202 H   0  0  0  1  0  0  0  0  0  0  0  0
    4.4398    1.3365    0.2135 H   0  0  0  1  0  0  0  0  0  0  0  0
    4.1132    0.2340    1.5296 H   0  0  0  1  0  0  0  0  0  0  0  0
   -0.5429    1.9605    0.4924 H   0  0  0  1  0  0  0  0  0  0  0  0
    3.0828    3.0068    1.6674 H   0  0  0  1  0  0  0  0  0  0  0  0
    4.7707    2.7017    2.0020 H   0  0  0  1  0  0  0  0  0  0  0  0
   -0.2233   -0.9060    0.7678 H   0  0  0  1  0  0  0  0  0  0  0  0
    4.1471    1.1467    3.7544 H   0  0  0  1  0  0  0  0  0  0  0  0
    2.4574    1.4361    3.4148 H   0  0  0  1  0  0  0  0  0  0  0  0
   -1.0149   -1.4440    2.2407 H   0  0  0  1  0  0  0  0  0  0  0  0
   -1.9828   -2.7790    3.7628 H   0  0  0  1  0  0  0  0  0  0  0  0
   -2.7226   -4.9546    2.9571 H   0  0  0  1  0  0  0  0  0  0  0  0
   -3.2737   -4.2193    1.4706 H   0  0  0  1  0  0  0  0  0  0  0  0
    4.1599    2.8551    5.1634 H   0  0  0  1  0  0  0  0  0  0  0  0
    2.4675    3.1359    4.8329 H   0  0  0  1  0  0  0  0  0  0  0  0
    3.6898    3.9356    3.8735 H   0  0  0  1  0  0  0  0  0  0  0  0
   -4.5017   -3.8098    4.1654 H   0  0  0  1  0  0  0  0  0  0  0  0
   -5.1112   -4.8768    2.9227 H   0  0  0  1  0  0  0  0  0  0  0  0
   -4.8001   -1.9242    2.6102 H   0  0  0  1  0  0  0  0  0  0  0  0
   -6.2859   -2.7142    3.0816 H   0  0  0  1  0  0  0  0  0  0  0  0
  1 34  1  0  0  0  0
  2  4  1  0  0  0  0
  3  4  1  0  0  0  0
  4  5  1  0  0  0  0
  4 32  1  0  0  0  0
  6 10  1  0  0  0  0
  6 26  1  0  0  0  0
  6 42  1  0  0  0  0
  7  8  1  0  0  0  0
  7  9  2  0  0  0  0
  7 13  1  0  0  0  0
  8 43  1  0  0  0  0
  8 44  1  0  0  0  0
  8 45  1  0  0  0  0
 10 46  1  0  0  0  0
 10 47  1  0  0  0  0
 10 48  1  0  0  0  0
 11 27  1  0  0  0  0
 11 49  1  0  0  0  0
 12 26  2  0  0  0  0
 13 23  1  0  0  0  0
 13 50  1  0  0  0  0
 14 41  1  0  0  0  0
 15 24  1  0  0  0  0
 15 32  4  0  0  0  0
 15 34  4  0  0  0  0
 16 41  2  0  0  0  0
 17 18  1  0  0  0  0
 17 20  1  0  0  0  0
 17 51  1  0  0  0  0
 17 52  1  0  0  0  0
 18 23  1  0  0  0  0
 18 53  1  0  0  0  0
 18 54  1  0  0  0  0
 19 21  4  0  0  0  0
 19 29  1  0  0  0  0
 19 32  4  0  0  0  0
 20 24  1  0  0  0  0
 20 55  1  0  0  0  0
 20 56  1  0  0  0  0
 21 25  1  0  0  0  0
 21 34  4  0  0  0  0
 22 27  1  0  0  0  0
 22 28  1  0  0  0  0
 22 57  1  0  0  0  0
 22 58  1  0  0  0  0
 23 26  1  0  0  0  0
 23 59  1  0  0  0  0
 24 60  1  0  0  0  0
 24 61  1  0  0  0  0
 25 35  1  0  0  0  0
 25 62  1  0  0  0  0
 25 63  1  0  0  0  0
 27 31  1  0  0  0  0
 27 64  1  0  0  0  0
 28 30  1  0  0  0  0
 28 65  1  0  0  0  0
 28 66  1  0  0  0  0
 29 31  2  0  0  0  0
 29 67  1  0  0  0  0
 30 33  1  0  0  0  0
 30 68  1  0  0  0  0
 30 69  1  0  0  0  0
 31 70  1  0  0  0  0
 33 38  1  0  0  0  0
 33 71  1  0  0  0  0
 33 72  1  0  0  0  0
 35 36  2  0  0  0  0
 35 73  1  0  0  0  0
 36 37  1  0  0  0  0
 36 74  1  0  0  0  0
 37 39  1  0  0  0  0
 37 75  1  0  0  0  0
 37 76  1  0  0  0  0
 38 77  1  0  0  0  0
 38 78  1  0  0  0  0
 38 79  1  0  0  0  0
 39 40  1  0  0  0  0
 39 80  1  0  0  0  0
 39 81  1  0  0  0  0
 40 41  1  0  0  0  0
 40 82  1  0  0  0  0
 40 83  1  0  0  0  0
M  END
> <ConfClashScore>
0 

> <ConfOneFourInteractionScore>
-0.98718 

> <ConfScore>
0.0605895 

> <ConfScorePBest>
0.0041883 

> <ConfTolerance>
2.07235 

$$$$
9548876
  PyMOL2.2          3D                             0

 83 83  0  0  0  0  0  0  0  0999 V2000
   -5.0116   -1.0397   -0.1058 H   0  0  0  1  0  0  0  0  0  0  0  0
   -4.0397    3.5787   -0.6178 H   0  0  0  1  0  0  0  0  0  0  0  0
   -2.3025    3.4237   -0.7199 H   0  0  0  1  0  0  0  0  0  0  0  0
   -3.1681    3.1854   -0.1378 C   0  0  0  1  0  0  0  0  0  0  0  0
   -3.0728    3.6164    0.8369 H   0  0  0  1  0  0  0  0  0  0  0  0
   -7.0497    3.9977   -7.0513 N   0  0  0  1  0  0  0  0  0  0  0  0
   -9.2912    1.7946   -6.2300 C   0  0  0  1  0  0  0  0  0  0  0  0
   -9.4094    0.4433   -6.9463 C   0  0  0  1  0  0  0  0  0  0  0  0
  -10.2281    2.5912   -6.2655 O   0  0  0  1  0  0  0  0  0  0  0  0
   -6.7947    4.9346   -8.1352 C   0  0  0  1  0  0  0  0  0  0  0  0
    1.8224    3.0076    0.0858 O   0  0  0  1  0  0  0  0  0  0  0  0
   -8.0605    5.4997   -5.7308 O   0  0  0  1  0  0  0  0  0  0  0  0
   -8.1749    2.0044   -5.5145 N   0  0  0  1  0  0  0  0  0  0  0  0
    1.9766   -4.1423    3.7437 O   0  5  0  1  0  0  0  0  0  0  0  0
   -4.4722    1.0512   -0.2037 N   0  0  0  1  0  0  0  0  0  0  0  0
    0.7176   -2.2499    3.6509 O   0  0  0  1  0  0  0  0  0  0  0  0
   -6.9203    2.4511   -2.6613 C   0  0  0  1  0  0  0  0  0  0  0  0
   -6.6477    3.1539   -3.9823 C   0  0  0  1  0  0  0  0  0  0  0  0
   -2.3243    0.7578    0.2868 C   0  0  0  1  0  0  0  0  0  0  0  0
   -5.6604    2.5177   -1.8137 C   0  0  0  1  0  0  0  0  0  0  0  0
   -2.9513   -0.4967    0.2814 C   0  0  0  1  0  0  0  0  0  0  0  0
    0.9644    3.5346    2.2930 C   0  0  0  1  0  0  0  0  0  0  0  0
   -7.8910    3.2792   -4.8726 C   0  0  0  1  0  0  0  0  0  0  0  0
   -5.7447    1.6889   -0.5433 C   0  0  0  1  0  0  0  0  0  0  0  0
   -2.2884   -1.8250    0.5607 C   0  0  0  1  0  0  0  0  0  0  0  0
   -7.6463    4.3669   -5.9143 C   0  0  0  1  0  0  0  0  0  0  0  0
    1.0058    2.5221    1.1488 C   0  0  0  1  0  0  0  0  0  0  0  0
    0.1117    3.0824    3.4672 C   0  0  0  1  0  0  0  0  0  0  0  0
   -0.9220    1.0621    0.5542 C   0  0  0  1  0  0  0  0  0  0  0  0
    0.2651    3.9614    4.6967 C   0  0  0  1  0  0  0  0  0  0  0  0
   -0.3427    2.2389    0.5669 C   0  0  0  1  0  0  0  0  0  0  0  0
   -3.2923    1.7056   -0.0161 C   0  0  0  1  0  0  0  0  0  0  0  0
   -0.5409    3.4089    5.8565 C   0  0  0  1  0  0  0  0  0  0  0  0
   -4.2839   -0.3011   -0.0250 C   0  0  0  1  0  0  0  0  0  0  0  0
   -1.5547   -2.4110   -0.6036 C   0  0  0  1  0  0  0  0  0  0  0  0
   -0.3256   -2.8610   -0.5643 C   0  0  0  1  0  0  0  0  0  0  0  0
    0.4860   -3.1769    0.6635 C   0  0  0  1  0  0  0  0  0  0  0  0
   -0.0695    2.0402    6.3200 C   0  0  0  1  0  0  0  0  0  0  0  0
    1.7357   -2.3112    0.7930 C   0  0  0  1  0  0  0  0  0  0  0  0
    2.5090   -2.5577    2.0780 C   0  0  0  1  0  0  0  0  0  0  0  0
    1.6331   -2.9336    3.2233 C   0  0  0  1  0  0  0  0  0  0  0  0
   -6.7741    3.0634   -7.1591 H   0  0  0  1  0  0  0  0  0  0  0  0
  -10.4327    0.1308   -6.9528 H   0  0  0  1  0  0  0  0  0  0  0  0
   -8.8175   -0.2853   -6.4327 H   0  0  0  1  0  0  0  0  0  0  0  0
   -9.0604    0.5418   -7.9530 H   0  0  0  1  0  0  0  0  0  0  0  0
   -5.7451    4.9664   -8.3405 H   0  0  0  1  0  0  0  0  0  0  0  0
   -7.1318    5.9094   -7.8505 H   0  0  0  1  0  0  0  0  0  0  0  0
   -7.3198    4.6171   -9.0118 H   0  0  0  1  0  0  0  0  0  0  0  0
    1.2795    3.1612   -0.6909 H   0  0  0  1  0  0  0  0  0  0  0  0
   -7.5287    1.2736   -5.4211 H   0  0  0  1  0  0  0  0  0  0  0  0
   -7.1801    1.4290   -2.8427 H   0  0  0  1  0  0  0  0  0  0  0  0
   -7.7248    2.9390   -2.1518 H   0  0  0  1  0  0  0  0  0  0  0  0
   -5.9038    2.5988   -4.5147 H   0  0  0  1  0  0  0  0  0  0  0  0
   -6.2791    4.1365   -3.7741 H   0  0  0  1  0  0  0  0  0  0  0  0
   -5.4878    3.5382   -1.5421 H   0  0  0  1  0  0  0  0  0  0  0  0
   -4.8388    2.1598   -2.3983 H   0  0  0  1  0  0  0  0  0  0  0  0
    0.5656    4.4540    1.9181 H   0  0  0  1  0  0  0  0  0  0  0  0
    1.9636    3.6942    2.6409 H   0  0  0  1  0  0  0  0  0  0  0  0
   -8.7210    3.5682   -4.2622 H   0  0  0  1  0  0  0  0  0  0  0  0
   -6.0342    2.3281    0.2645 H   0  0  0  1  0  0  0  0  0  0  0  0
   -6.4842    0.9276   -0.6790 H   0  0  0  1  0  0  0  0  0  0  0  0
   -3.0452   -2.5189    0.8617 H   0  0  0  1  0  0  0  0  0  0  0  0
   -1.5907   -1.6882    1.3603 H   0  0  0  1  0  0  0  0  0  0  0  0
    1.4121    1.6067    1.5253 H   0  0  0  1  0  0  0  0  0  0  0  0
    0.3942    2.0836    3.7268 H   0  0  0  1  0  0  0  0  0  0  0  0
   -0.9150    3.0964    3.1661 H   0  0  0  1  0  0  0  0  0  0  0  0
   -0.3083    0.2479    0.7594 H   0  0  0  1  0  0  0  0  0  0  0  0
   -0.0802    4.9480    4.4679 H   0  0  0  1  0  0  0  0  0  0  0  0
    1.2978    3.9998    4.9739 H   0  0  0  1  0  0  0  0  0  0  0  0
   -0.8596    3.0343    0.1406 H   0  0  0  1  0  0  0  0  0  0  0  0
   -1.5636    3.3303    5.5519 H   0  0  0  1  0  0  0  0  0  0  0  0
   -0.4643    4.0903    6.6779 H   0  0  0  1  0  0  0  0  0  0  0  0
   -2.0582   -2.4652   -1.5119 H   0  0  0  1  0  0  0  0  0  0  0  0
    0.1405   -3.0171   -1.4809 H   0  0  0  1  0  0  0  0  0  0  0  0
    0.7857   -4.2031    0.6189 H   0  0  0  1  0  0  0  0  0  0  0  0
   -0.1272   -3.0210    1.5264 H   0  0  0  1  0  0  0  0  0  0  0  0
    0.9193    2.1200    6.7210 H   0  0  0  1  0  0  0  0  0  0  0  0
   -0.0640    1.3652    5.4898 H   0  0  0  1  0  0  0  0  0  0  0  0
   -0.7319    1.6721    7.0753 H   0  0  0  1  0  0  0  0  0  0  0  0
    1.4404   -1.2831    0.7666 H   0  0  0  1  0  0  0  0  0  0  0  0
    2.3798   -2.5192   -0.0358 H   0  0  0  1  0  0  0  0  0  0  0  0
    3.0389   -1.6639    2.3335 H   0  0  0  1  0  0  0  0  0  0  0  0
    3.2071   -3.3507    1.9086 H   0  0  0  1  0  0  0  0  0  0  0  0
  1 34  1  0  0  0  0
  2  4  1  0  0  0  0
  3  4  1  0  0  0  0
  4  5  1  0  0  0  0
  4 32  1  0  0  0  0
  6 10  1  0  0  0  0
  6 26  1  0  0  0  0
  6 42  1  0  0  0  0
  7  8  1  0  0  0  0
  7  9  2  0  0  0  0
  7 13  1  0  0  0  0
  8 43  1  0  0  0  0
  8 44  1  0  0  0  0
  8 45  1  0  0  0  0
 10 46  1  0  0  0  0
 10 47  1  0  0  0  0
 10 48  1  0  0  0  0
 11 27  1  0  0  0  0
 11 49  1  0  0  0  0
 12 26  2  0  0  0  0
 13 23  1  0  0  0  0
 13 50  1  0  0  0  0
 14 41  1  0  0  0  0
 15 24  1  0  0  0  0
 15 32  4  0  0  0  0
 15 34  4  0  0  0  0
 16 41  2  0  0  0  0
 17 18  1  0  0  0  0
 17 20  1  0  0  0  0
 17 51  1  0  0  0  0
 17 52  1  0  0  0  0
 18 23  1  0  0  0  0
 18 53  1  0  0  0  0
 18 54  1  0  0  0  0
 19 21  4  0  0  0  0
 19 29  1  0  0  0  0
 19 32  4  0  0  0  0
 20 24  1  0  0  0  0
 20 55  1  0  0  0  0
 20 56  1  0  0  0  0
 21 25  1  0  0  0  0
 21 34  4  0  0  0  0
 22 27  1  0  0  0  0
 22 28  1  0  0  0  0
 22 57  1  0  0  0  0
 22 58  1  0  0  0  0
 23 26  1  0  0  0  0
 23 59  1  0  0  0  0
 24 60  1  0  0  0  0
 24 61  1  0  0  0  0
 25 35  1  0  0  0  0
 25 62  1  0  0  0  0
 25 63  1  0  0  0  0
 27 31  1  0  0  0  0
 27 64  1  0  0  0  0
 28 30  1  0  0  0  0
 28 65  1  0  0  0  0
 28 66  1  0  0  0  0
 29 31  2  0  0  0  0
 29 67  1  0  0  0  0
 30 33  1  0  0  0  0
 30 68  1  0  0  0  0
 30 69  1  0  0  0  0
 31 70  1  0  0  0  0
 33 38  1  0  0  0  0
 33 71  1  0  0  0  0
 33 72  1  0  0  0  0
 35 36  2  0  0  0  0
 35 73  1  0  0  0  0
 36 37  1  0  0  0  0
 36 74  1  0  0  0  0
 37 39  1  0  0  0  0
 37 75  1  0  0  0  0
 37 76  1  0  0  0  0
 38 77  1  0  0  0  0
 38 78  1  0  0  0  0
 38 79  1  0  0  0  0
 39 40  1  0  0  0  0
 39 80  1  0  0  0  0
 39 81  1  0  0  0  0
 40 41  1  0  0  0  0
 40 82  1  0  0  0  0
 40 83  1  0  0  0  0
M  END
> <ConfClashScore>
0 

> <ConfOneFourInteractionScore>
-0.978453 

> <ConfScore>
0.0644027 

> <ConfScorePBest>
0.00415982 

> <ConfTolerance>
1.7882 

$$$$
9548876
  PyMOL2.2          3D                             0

 83 83  0  0  0  0  0  0  0  0999 V2000
   -4.9941   -1.0300   -0.1149 H   0  0  0  1  0  0  0  0  0  0  0  0
   -2.2349    3.5321    0.2002 H   0  0  0  1  0  0  0  0  0  0  0  0
   -3.9586    3.6420    0.4637 H   0  0  0  1  0  0  0  0  0  0  0  0
   -3.1932    3.1940   -0.1349 C   0  0  0  1  0  0  0  0  0  0  0  0
   -3.3315    3.4727   -1.1587 H   0  0  0  1  0  0  0  0  0  0  0  0
  -11.6485   -2.4403    0.8518 N   0  0  0  1  0  0  0  0  0  0  0  0
  -10.3013   -2.3036   -2.0726 C   0  0  0  1  0  0  0  0  0  0  0  0
  -11.0953   -1.8325   -3.2889 C   0  0  0  1  0  0  0  0  0  0  0  0
   -9.9244   -3.4706   -1.9750 O   0  0  0  1  0  0  0  0  0  0  0  0
  -12.6183   -3.0987    1.7143 C   0  0  0  1  0  0  0  0  0  0  0  0
    2.2359    1.7552   -0.3485 O   0  0  0  1  0  0  0  0  0  0  0  0
   -9.8747   -2.9732    2.1131 O   0  0  0  1  0  0  0  0  0  0  0  0
  -10.1297   -1.3808   -1.1129 N   0  0  0  1  0  0  0  0  0  0  0  0
   -4.0507    0.8560   -5.4445 O   0  5  0  1  0  0  0  0  0  0  0  0
   -4.4503    1.0603   -0.2016 N   0  0  0  1  0  0  0  0  0  0  0  0
   -5.0810   -1.1681   -5.2424 O   0  0  0  1  0  0  0  0  0  0  0  0
   -7.6122    0.0358   -0.2355 C   0  0  0  1  0  0  0  0  0  0  0  0
   -8.7329   -0.4645    0.6629 C   0  0  0  1  0  0  0  0  0  0  0  0
   -2.3035    0.7599    0.2894 C   0  0  0  1  0  0  0  0  0  0  0  0
   -6.8655    1.2272    0.3398 C   0  0  0  1  0  0  0  0  0  0  0  0
   -2.9331   -0.4933    0.2771 C   0  0  0  1  0  0  0  0  0  0  0  0
    1.2655    3.7982    0.5571 C   0  0  0  1  0  0  0  0  0  0  0  0
   -9.4261   -1.7290    0.1265 C   0  0  0  1  0  0  0  0  0  0  0  0
   -5.7211    1.7023   -0.5392 C   0  0  0  1  0  0  0  0  0  0  0  0
   -2.3264   -1.8559    0.5418 C   0  0  0  1  0  0  0  0  0  0  0  0
  -10.3435   -2.4118    1.1366 C   0  0  0  1  0  0  0  0  0  0  0  0
    1.1801    2.2879    0.4491 C   0  0  0  1  0  0  0  0  0  0  0  0
    2.4930    4.2796    1.3118 C   0  0  0  1  0  0  0  0  0  0  0  0
   -0.8928    1.0050    0.5668 C   0  0  0  1  0  0  0  0  0  0  0  0
    2.5595    5.7926    1.4525 C   0  0  0  1  0  0  0  0  0  0  0  0
   -0.1362    1.8874   -0.1623 C   0  0  0  1  0  0  0  0  0  0  0  0
   -3.2693    1.7113   -0.0095 C   0  0  0  1  0  0  0  0  0  0  0  0
    3.8760    6.2867    2.0273 C   0  0  0  1  0  0  0  0  0  0  0  0
   -4.2650   -0.2933   -0.0296 C   0  0  0  1  0  0  0  0  0  0  0  0
   -2.9463   -2.9743   -0.2341 C   0  0  0  1  0  0  0  0  0  0  0  0
   -3.5216   -2.8964   -1.4079 C   0  0  0  1  0  0  0  0  0  0  0  0
   -3.3708   -1.7083   -2.3253 C   0  0  0  1  0  0  0  0  0  0  0  0
    3.9541    7.8006    2.1396 C   0  0  0  1  0  0  0  0  0  0  0  0
   -2.9048   -2.1475   -3.7038 C   0  0  0  1  0  0  0  0  0  0  0  0
   -2.7723   -0.9525   -4.6337 C   0  0  0  1  0  0  0  0  0  0  0  0
   -4.0818   -0.4732   -5.1585 C   0  0  0  1  0  0  0  0  0  0  0  0
  -11.9637   -2.0025    0.0336 H   0  0  0  1  0  0  0  0  0  0  0  0
  -11.8563   -1.1486   -2.9756 H   0  0  0  1  0  0  0  0  0  0  0  0
  -11.5486   -2.6756   -3.7670 H   0  0  0  1  0  0  0  0  0  0  0  0
  -10.4374   -1.3431   -3.9763 H   0  0  0  1  0  0  0  0  0  0  0  0
  -13.2918   -3.6778    1.1176 H   0  0  0  1  0  0  0  0  0  0  0  0
  -13.1692   -2.3610    2.2594 H   0  0  0  1  0  0  0  0  0  0  0  0
  -12.1068   -3.7415    2.4000 H   0  0  0  1  0  0  0  0  0  0  0  0
    2.8085    2.4684   -0.6401 H   0  0  0  1  0  0  0  0  0  0  0  0
  -10.4752   -0.4726   -1.2404 H   0  0  0  1  0  0  0  0  0  0  0  0
   -8.0338    0.3218   -1.1765 H   0  0  0  1  0  0  0  0  0  0  0  0
   -6.9149   -0.7620   -0.3843 H   0  0  0  1  0  0  0  0  0  0  0  0
   -9.4649    0.3103    0.7556 H   0  0  0  1  0  0  0  0  0  0  0  0
   -8.3225   -0.6853    1.6261 H   0  0  0  1  0  0  0  0  0  0  0  0
   -6.4681    0.9500    1.2938 H   0  0  0  1  0  0  0  0  0  0  0  0
   -7.5573    2.0344    0.4618 H   0  0  0  1  0  0  0  0  0  0  0  0
    0.3937    4.1517    1.0669 H   0  0  0  1  0  0  0  0  0  0  0  0
    1.2924    4.2081   -0.4309 H   0  0  0  1  0  0  0  0  0  0  0  0
   -8.6541   -2.4276   -0.1203 H   0  0  0  1  0  0  0  0  0  0  0  0
   -5.9571    1.4805   -1.5589 H   0  0  0  1  0  0  0  0  0  0  0  0
   -5.6133    2.7601   -0.4195 H   0  0  0  1  0  0  0  0  0  0  0  0
   -2.4346   -2.0726    1.5840 H   0  0  0  1  0  0  0  0  0  0  0  0
   -1.2868   -1.8126    0.2921 H   0  0  0  1  0  0  0  0  0  0  0  0
    1.2321    1.8756    1.4351 H   0  0  0  1  0  0  0  0  0  0  0  0
    3.3650    3.9491    0.7871 H   0  0  0  1  0  0  0  0  0  0  0  0
    2.4802    3.8480    2.2908 H   0  0  0  1  0  0  0  0  0  0  0  0
   -0.4418    0.4897    1.3495 H   0  0  0  1  0  0  0  0  0  0  0  0
    1.7673    6.1083    2.0989 H   0  0  0  1  0  0  0  0  0  0  0  0
    2.4265    6.2294    0.4849 H   0  0  0  1  0  0  0  0  0  0  0  0
   -0.4527    2.2571   -1.0814 H   0  0  0  1  0  0  0  0  0  0  0  0
    4.6700    5.9522    1.3929 H   0  0  0  1  0  0  0  0  0  0  0  0
    3.9985    5.8673    3.0041 H   0  0  0  1  0  0  0  0  0  0  0  0
   -2.9174   -3.9160    0.2064 H   0  0  0  1  0  0  0  0  0  0  0  0
   -4.1114   -3.6929   -1.7233 H   0  0  0  1  0  0  0  0  0  0  0  0
   -2.6515   -1.0336   -1.9102 H   0  0  0  1  0  0  0  0  0  0  0  0
   -4.3149   -1.2127   -2.4155 H   0  0  0  1  0  0  0  0  0  0  0  0
    3.7837    8.2392    1.1786 H   0  0  0  1  0  0  0  0  0  0  0  0
    4.9240    8.0822    2.4930 H   0  0  0  1  0  0  0  0  0  0  0  0
    3.2096    8.1459    2.8261 H   0  0  0  1  0  0  0  0  0  0  0  0
   -3.6171   -2.8332   -4.1130 H   0  0  0  1  0  0  0  0  0  0  0  0
   -1.9541   -2.6304   -3.6154 H   0  0  0  1  0  0  0  0  0  0  0  0
   -2.1553   -1.2322   -5.4619 H   0  0  0  1  0  0  0  0  0  0  0  0
   -2.3074   -0.1525   -4.0962 H   0  0  0  1  0  0  0  0  0  0  0  0
  1 34  1  0  0  0  0
  2  4  1  0  0  0  0
  3  4  1  0  0  0  0
  4  5  1  0  0  0  0
  4 32  1  0  0  0  0
  6 10  1  0  0  0  0
  6 26  1  0  0  0  0
  6 42  1  0  0  0  0
  7  8  1  0  0  0  0
  7  9  2  0  0  0  0
  7 13  1  0  0  0  0
  8 43  1  0  0  0  0
  8 44  1  0  0  0  0
  8 45  1  0  0  0  0
 10 46  1  0  0  0  0
 10 47  1  0  0  0  0
 10 48  1  0  0  0  0
 11 27  1  0  0  0  0
 11 49  1  0  0  0  0
 12 26  2  0  0  0  0
 13 23  1  0  0  0  0
 13 50  1  0  0  0  0
 14 41  1  0  0  0  0
 15 24  1  0  0  0  0
 15 32  4  0  0  0  0
 15 34  4  0  0  0  0
 16 41  2  0  0  0  0
 17 18  1  0  0  0  0
 17 20  1  0  0  0  0
 17 51  1  0  0  0  0
 17 52  1  0  0  0  0
 18 23  1  0  0  0  0
 18 53  1  0  0  0  0
 18 54  1  0  0  0  0
 19 21  4  0  0  0  0
 19 29  1  0  0  0  0
 19 32  4  0  0  0  0
 20 24  1  0  0  0  0
 20 55  1  0  0  0  0
 20 56  1  0  0  0  0
 21 25  1  0  0  0  0
 21 34  4  0  0  0  0
 22 27  1  0  0  0  0
 22 28  1  0  0  0  0
 22 57  1  0  0  0  0
 22 58  1  0  0  0  0
 23 26  1  0  0  0  0
 23 59  1  0  0  0  0
 24 60  1  0  0  0  0
 24 61  1  0  0  0  0
 25 35  1  0  0  0  0
 25 62  1  0  0  0  0
 25 63  1  0  0  0  0
 27 31  1  0  0  0  0
 27 64  1  0  0  0  0
 28 30  1  0  0  0  0
 28 65  1  0  0  0  0
 28 66  1  0  0  0  0
 29 31  2  0  0  0  0
 29 67  1  0  0  0  0
 30 33  1  0  0  0  0
 30 68  1  0  0  0  0
 30 69  1  0  0  0  0
 31 70  1  0  0  0  0
 33 38  1  0  0  0  0
 33 71  1  0  0  0  0
 33 72  1  0  0  0  0
 35 36  2  0  0  0  0
 35 73  1  0  0  0  0
 36 37  1  0  0  0  0
 36 74  1  0  0  0  0
 37 39  1  0  0  0  0
 37 75  1  0  0  0  0
 37 76  1  0  0  0  0
 38 77  1  0  0  0  0
 38 78  1  0  0  0  0
 38 79  1  0  0  0  0
 39 40  1  0  0  0  0
 39 80  1  0  0  0  0
 39 81  1  0  0  0  0
 40 41  1  0  0  0  0
 40 82  1  0  0  0  0
 40 83  1  0  0  0  0
M  END
> <ConfClashScore>
0 

> <ConfOneFourInteractionScore>
-0.986845 

> <ConfScore>
0.0662613 

> <ConfScorePBest>
0.00413134 

> <ConfTolerance>
2.14856 

$$$$
9548876
  PyMOL2.2          3D                             0

 83 83  0  0  0  0  0  0  0  0999 V2000
   -4.9971   -1.0411   -0.1079 H   0  0  0  1  0  0  0  0  0  0  0  0
   -2.7753    3.4428   -1.0968 H   0  0  0  1  0  0  0  0  0  0  0  0
   -2.5216    3.5620    0.6277 H   0  0  0  1  0  0  0  0  0  0  0  0
   -3.1740    3.1929   -0.1358 C   0  0  0  1  0  0  0  0  0  0  0  0
   -4.1411    3.6371   -0.0248 H   0  0  0  1  0  0  0  0  0  0  0  0
   -9.1802    7.5558    1.9175 N   0  0  0  1  0  0  0  0  0  0  0  0
   -6.3932    8.2194    1.4275 C   0  0  0  1  0  0  0  0  0  0  0  0
   -5.2160    8.8176    2.1639 C   0  0  0  1  0  0  0  0  0  0  0  0
   -7.1904    8.9352    0.8271 O   0  0  0  1  0  0  0  0  0  0  0  0
  -10.4344    8.2547    2.1551 C   0  0  0  1  0  0  0  0  0  0  0  0
    2.0610    2.5715    0.0581 O   0  0  0  1  0  0  0  0  0  0  0  0
   -9.7731    6.7760   -0.0979 O   0  0  0  1  0  0  0  0  0  0  0  0
   -6.5404    6.8785    1.4500 N   0  0  0  1  0  0  0  0  0  0  0  0
    4.3121   -1.4603   -0.7680 O   0  5  0  1  0  0  0  0  0  0  0  0
   -4.4679    1.0525   -0.2038 N   0  0  0  1  0  0  0  0  0  0  0  0
    4.1744   -0.5919    1.3406 O   0  0  0  1  0  0  0  0  0  0  0  0
   -6.4287    4.0156    0.1902 C   0  0  0  1  0  0  0  0  0  0  0  0
   -7.5832    4.7265    0.8517 C   0  0  0  1  0  0  0  0  0  0  0  0
   -2.3185    0.7690    0.2863 C   0  0  0  1  0  0  0  0  0  0  0  0
   -6.3364    2.5438    0.5586 C   0  0  0  1  0  0  0  0  0  0  0  0
   -2.9394   -0.4886    0.2797 C   0  0  0  1  0  0  0  0  0  0  0  0
    1.0974    3.5682    2.0545 C   0  0  0  1  0  0  0  0  0  0  0  0
   -7.5661    6.2423    0.6369 C   0  0  0  1  0  0  0  0  0  0  0  0
   -5.7425    1.6839   -0.5424 C   0  0  0  1  0  0  0  0  0  0  0  0
   -2.3248   -1.8419    0.5487 C   0  0  0  1  0  0  0  0  0  0  0  0
   -8.9522    6.8585    0.8009 C   0  0  0  1  0  0  0  0  0  0  0  0
    1.1364    2.3767    1.1171 C   0  0  0  1  0  0  0  0  0  0  0  0
    2.4205    3.8271    2.7548 C   0  0  0  1  0  0  0  0  0  0  0  0
   -0.9076    1.0253    0.5616 C   0  0  0  1  0  0  0  0  0  0  0  0
    3.4493    4.5078    1.8667 C   0  0  0  1  0  0  0  0  0  0  0  0
   -0.2197    2.1392    0.5323 C   0  0  0  1  0  0  0  0  0  0  0  0
   -3.2911    1.7124   -0.0155 C   0  0  0  1  0  0  0  0  0  0  0  0
    4.6617    5.0125    2.6280 C   0  0  0  1  0  0  0  0  0  0  0  0
   -4.2730   -0.2991   -0.0264 C   0  0  0  1  0  0  0  0  0  0  0  0
   -1.9537   -2.0838    1.9773 C   0  0  0  1  0  0  0  0  0  0  0  0
   -0.7398   -2.3385    2.4041 C   0  0  0  1  0  0  0  0  0  0  0  0
    0.3870   -2.7401    1.4925 C   0  0  0  1  0  0  0  0  0  0  0  0
    5.6920    5.6888    1.7397 C   0  0  0  1  0  0  0  0  0  0  0  0
    1.5764   -1.7890    1.4666 C   0  0  0  1  0  0  0  0  0  0  0  0
    2.7492   -2.4114    0.7203 C   0  0  0  1  0  0  0  0  0  0  0  0
    3.8290   -1.4081    0.5023 C   0  0  0  1  0  0  0  0  0  0  0  0
   -8.4785    7.5981    2.6003 H   0  0  0  1  0  0  0  0  0  0  0  0
   -5.3388    9.8784    2.2318 H   0  0  0  1  0  0  0  0  0  0  0  0
   -4.3137    8.5965    1.6330 H   0  0  0  1  0  0  0  0  0  0  0  0
   -5.1625    8.4014    3.1482 H   0  0  0  1  0  0  0  0  0  0  0  0
  -11.2295    7.7413    1.6559 H   0  0  0  1  0  0  0  0  0  0  0  0
  -10.3628    9.2535    1.7778 H   0  0  0  1  0  0  0  0  0  0  0  0
  -10.6329    8.2833    3.2061 H   0  0  0  1  0  0  0  0  0  0  0  0
    1.5842    2.6744   -0.7688 H   0  0  0  1  0  0  0  0  0  0  0  0
   -5.9555    6.3317    2.0151 H   0  0  0  1  0  0  0  0  0  0  0  0
   -5.5198    4.4969    0.4855 H   0  0  0  1  0  0  0  0  0  0  0  0
   -6.5455    4.0931   -0.8706 H   0  0  0  1  0  0  0  0  0  0  0  0
   -7.5435    4.5324    1.9032 H   0  0  0  1  0  0  0  0  0  0  0  0
   -8.4958    4.3373    0.4508 H   0  0  0  1  0  0  0  0  0  0  0  0
   -7.3213    2.1858    0.7747 H   0  0  0  1  0  0  0  0  0  0  0  0
   -5.7231    2.4501    1.4303 H   0  0  0  1  0  0  0  0  0  0  0  0
    0.3490    3.3904    2.7983 H   0  0  0  1  0  0  0  0  0  0  0  0
    0.8379    4.4377    1.4874 H   0  0  0  1  0  0  0  0  0  0  0  0
   -7.2919    6.3939   -0.3862 H   0  0  0  1  0  0  0  0  0  0  0  0
   -6.4449    0.9117   -0.7775 H   0  0  0  1  0  0  0  0  0  0  0  0
   -5.5901    2.3020   -1.4024 H   0  0  0  1  0  0  0  0  0  0  0  0
   -1.4395   -1.9304   -0.0457 H   0  0  0  1  0  0  0  0  0  0  0  0
   -3.0287   -2.5923    0.2551 H   0  0  0  1  0  0  0  0  0  0  0  0
    1.4140    1.5119    1.6828 H   0  0  0  1  0  0  0  0  0  0  0  0
    2.8209    2.8899    3.0808 H   0  0  0  1  0  0  0  0  0  0  0  0
    2.2384    4.4524    3.6037 H   0  0  0  1  0  0  0  0  0  0  0  0
   -0.3573    0.1829    0.8247 H   0  0  0  1  0  0  0  0  0  0  0  0
    2.9821    5.3399    1.3826 H   0  0  0  1  0  0  0  0  0  0  0  0
    3.7794    3.8054    1.1301 H   0  0  0  1  0  0  0  0  0  0  0  0
   -0.6645    2.9462    0.0503 H   0  0  0  1  0  0  0  0  0  0  0  0
    5.1269    4.1810    3.1148 H   0  0  0  1  0  0  0  0  0  0  0  0
    4.3319    5.7174    3.3623 H   0  0  0  1  0  0  0  0  0  0  0  0
   -2.7148   -2.0473    2.6851 H   0  0  0  1  0  0  0  0  0  0  0  0
   -0.5471   -2.2588    3.4229 H   0  0  0  1  0  0  0  0  0  0  0  0
   -0.0017   -2.8096    0.4980 H   0  0  0  1  0  0  0  0  0  0  0  0
    0.7392   -3.7005    1.8063 H   0  0  0  1  0  0  0  0  0  0  0  0
    6.3410    6.2912    2.3403 H   0  0  0  1  0  0  0  0  0  0  0  0
    5.1935    6.3073    1.0229 H   0  0  0  1  0  0  0  0  0  0  0  0
    6.2671    4.9440    1.2302 H   0  0  0  1  0  0  0  0  0  0  0  0
    1.8747   -1.5728    2.4712 H   0  0  0  1  0  0  0  0  0  0  0  0
    1.2899   -0.8822    0.9761 H   0  0  0  1  0  0  0  0  0  0  0  0
    2.4096   -2.7729   -0.2278 H   0  0  0  1  0  0  0  0  0  0  0  0
    3.1380   -3.2260    1.2948 H   0  0  0  1  0  0  0  0  0  0  0  0
  1 34  1  0  0  0  0
  2  4  1  0  0  0  0
  3  4  1  0  0  0  0
  4  5  1  0  0  0  0
  4 32  1  0  0  0  0
  6 10  1  0  0  0  0
  6 26  1  0  0  0  0
  6 42  1  0  0  0  0
  7  8  1  0  0  0  0
  7  9  2  0  0  0  0
  7 13  1  0  0  0  0
  8 43  1  0  0  0  0
  8 44  1  0  0  0  0
  8 45  1  0  0  0  0
 10 46  1  0  0  0  0
 10 47  1  0  0  0  0
 10 48  1  0  0  0  0
 11 27  1  0  0  0  0
 11 49  1  0  0  0  0
 12 26  2  0  0  0  0
 13 23  1  0  0  0  0
 13 50  1  0  0  0  0
 14 41  1  0  0  0  0
 15 24  1  0  0  0  0
 15 32  4  0  0  0  0
 15 34  4  0  0  0  0
 16 41  2  0  0  0  0
 17 18  1  0  0  0  0
 17 20  1  0  0  0  0
 17 51  1  0  0  0  0
 17 52  1  0  0  0  0
 18 23  1  0  0  0  0
 18 53  1  0  0  0  0
 18 54  1  0  0  0  0
 19 21  4  0  0  0  0
 19 29  1  0  0  0  0
 19 32  4  0  0  0  0
 20 24  1  0  0  0  0
 20 55  1  0  0  0  0
 20 56  1  0  0  0  0
 21 25  1  0  0  0  0
 21 34  4  0  0  0  0
 22 27  1  0  0  0  0
 22 28  1  0  0  0  0
 22 57  1  0  0  0  0
 22 58  1  0  0  0  0
 23 26  1  0  0  0  0
 23 59  1  0  0  0  0
 24 60  1  0  0  0  0
 24 61  1  0  0  0  0
 25 35  1  0  0  0  0
 25 62  1  0  0  0  0
 25 63  1  0  0  0  0
 27 31  1  0  0  0  0
 27 64  1  0  0  0  0
 28 30  1  0  0  0  0
 28 65  1  0  0  0  0
 28 66  1  0  0  0  0
 29 31  2  0  0  0  0
 29 67  1  0  0  0  0
 30 33  1  0  0  0  0
 30 68  1  0  0  0  0
 30 69  1  0  0  0  0
 31 70  1  0  0  0  0
 33 38  1  0  0  0  0
 33 71  1  0  0  0  0
 33 72  1  0  0  0  0
 35 36  2  0  0  0  0
 35 73  1  0  0  0  0
 36 37  1  0  0  0  0
 36 74  1  0  0  0  0
 37 39  1  0  0  0  0
 37 75  1  0  0  0  0
 37 76  1  0  0  0  0
 38 77  1  0  0  0  0
 38 78  1  0  0  0  0
 38 79  1  0  0  0  0
 39 40  1  0  0  0  0
 39 80  1  0  0  0  0
 39 81  1  0  0  0  0
 40 41  1  0  0  0  0
 40 82  1  0  0  0  0
 40 83  1  0  0  0  0
M  END
> <ConfClashScore>
0 

> <ConfOneFourInteractionScore>
-0.985972 

> <ConfScore>
0.0674333 

> <ConfScorePBest>
0.00410286 

> <ConfTolerance>
1.92939 

$$$$
9548876
  PyMOL2.2          3D                             0

 83 83  0  0  0  0  0  0  0  0999 V2000
   -5.0129   -1.0042   -0.1052 H   0  0  0  1  0  0  0  0  0  0  0  0
   -4.1842    3.5666   -0.3294 H   0  0  0  1  0  0  0  0  0  0  0  0
   -2.5627    3.4523   -0.9699 H   0  0  0  1  0  0  0  0  0  0  0  0
   -3.1980    3.1929   -0.1489 C   0  0  0  1  0  0  0  0  0  0  0  0
   -2.8126    3.6245    0.7512 H   0  0  0  1  0  0  0  0  0  0  0  0
  -10.6709    5.6020    1.5089 N   0  0  0  1  0  0  0  0  0  0  0  0
  -12.1617    2.1990    0.2427 C   0  0  0  1  0  0  0  0  0  0  0  0
  -12.7083    1.5180   -0.9970 C   0  0  0  1  0  0  0  0  0  0  0  0
  -12.8748    2.4082    1.2232 O   0  0  0  1  0  0  0  0  0  0  0  0
  -10.5705    7.0114    1.1604 C   0  0  0  1  0  0  0  0  0  0  0  0
    2.3144    0.1085    0.0973 O   0  0  0  1  0  0  0  0  0  0  0  0
   -9.0172    4.9391    0.1499 O   0  0  0  1  0  0  0  0  0  0  0  0
  -10.8669    2.5500    0.1923 N   0  0  0  1  0  0  0  0  0  0  0  0
    0.6869   -3.5292   -2.6428 O   0  5  0  1  0  0  0  0  0  0  0  0
   -4.4369    1.0772   -0.1984 N   0  0  0  1  0  0  0  0  0  0  0  0
    1.6076   -2.8972   -0.6609 O   0  0  0  1  0  0  0  0  0  0  0  0
   -7.9894    2.3299    0.4094 C   0  0  0  1  0  0  0  0  0  0  0  0
   -8.8926    2.4742    1.6091 C   0  0  0  1  0  0  0  0  0  0  0  0
   -2.2953    0.7453    0.2954 C   0  0  0  1  0  0  0  0  0  0  0  0
   -6.5881    1.8196    0.7030 C   0  0  0  1  0  0  0  0  0  0  0  0
   -2.9441   -0.4981    0.2867 C   0  0  0  1  0  0  0  0  0  0  0  0
    1.5368    1.4509    1.9133 C   0  0  0  1  0  0  0  0  0  0  0  0
  -10.1977    3.2138    1.3010 C   0  0  0  1  0  0  0  0  0  0  0  0
   -5.7223    1.6876   -0.5393 C   0  0  0  1  0  0  0  0  0  0  0  0
   -2.3052   -1.8382    0.5647 C   0  0  0  1  0  0  0  0  0  0  0  0
   -9.9295    4.6645    0.9119 C   0  0  0  1  0  0  0  0  0  0  0  0
    1.3742    0.1368    1.1530 C   0  0  0  1  0  0  0  0  0  0  0  0
    0.5836    1.5886    3.0892 C   0  0  0  1  0  0  0  0  0  0  0  0
   -0.8812    0.9695    0.5731 C   0  0  0  1  0  0  0  0  0  0  0  0
    0.7886    2.9186    3.7960 C   0  0  0  1  0  0  0  0  0  0  0  0
    0.0072   -0.0012    0.5673 C   0  0  0  1  0  0  0  0  0  0  0  0
   -3.2460    1.7104   -0.0075 C   0  0  0  1  0  0  0  0  0  0  0  0
   -0.1874    3.0744    4.9358 C   0  0  0  1  0  0  0  0  0  0  0  0
   -4.2726   -0.2786   -0.0217 C   0  0  0  1  0  0  0  0  0  0  0  0
   -3.2063   -3.0290    0.5898 C   0  0  0  1  0  0  0  0  0  0  0  0
   -2.9309   -4.1504   -0.0278 C   0  0  0  1  0  0  0  0  0  0  0  0
   -1.7404   -4.4348   -0.9040 C   0  0  0  1  0  0  0  0  0  0  0  0
    0.0235    4.2933    5.8140 C   0  0  0  1  0  0  0  0  0  0  0  0
   -0.5982   -5.0791   -0.1583 C   0  0  0  1  0  0  0  0  0  0  0  0
    0.7273   -5.1209   -0.9011 C   0  0  0  1  0  0  0  0  0  0  0  0
    1.0629   -3.7414   -1.3531 C   0  0  0  1  0  0  0  0  0  0  0  0
  -11.3045    5.3312    2.2058 H   0  0  0  1  0  0  0  0  0  0  0  0
  -13.3598    0.7199   -0.7081 H   0  0  0  1  0  0  0  0  0  0  0  0
  -11.8978    1.1252   -1.5746 H   0  0  0  1  0  0  0  0  0  0  0  0
  -13.2531    2.2285   -1.5829 H   0  0  0  1  0  0  0  0  0  0  0  0
  -11.4699    7.3235    0.6720 H   0  0  0  1  0  0  0  0  0  0  0  0
   -9.7389    7.1575    0.5031 H   0  0  0  1  0  0  0  0  0  0  0  0
  -10.4287    7.5892    2.0497 H   0  0  0  1  0  0  0  0  0  0  0  0
    2.0309    0.7038   -0.6004 H   0  0  0  1  0  0  0  0  0  0  0  0
  -10.3546    2.3524   -0.6194 H   0  0  0  1  0  0  0  0  0  0  0  0
   -7.9001    3.2906   -0.0533 H   0  0  0  1  0  0  0  0  0  0  0  0
   -8.4528    1.6471   -0.2717 H   0  0  0  1  0  0  0  0  0  0  0  0
   -8.3663    3.0162    2.3668 H   0  0  0  1  0  0  0  0  0  0  0  0
   -9.1340    1.4968    1.9716 H   0  0  0  1  0  0  0  0  0  0  0  0
   -6.6672    0.8578    1.1652 H   0  0  0  1  0  0  0  0  0  0  0  0
   -6.1129    2.5017    1.3768 H   0  0  0  1  0  0  0  0  0  0  0  0
    1.3583    2.2594    1.2354 H   0  0  0  1  0  0  0  0  0  0  0  0
    2.5399    1.5081    2.2812 H   0  0  0  1  0  0  0  0  0  0  0  0
  -10.8219    3.1948    2.1699 H   0  0  0  1  0  0  0  0  0  0  0  0
   -6.2255    1.0737   -1.2567 H   0  0  0  1  0  0  0  0  0  0  0  0
   -5.5526    2.6583   -0.9562 H   0  0  0  1  0  0  0  0  0  0  0  0
   -1.8274   -1.7754    1.5200 H   0  0  0  1  0  0  0  0  0  0  0  0
   -1.5685   -2.0073   -0.1927 H   0  0  0  1  0  0  0  0  0  0  0  0
    1.5466   -0.6757    1.8275 H   0  0  0  1  0  0  0  0  0  0  0  0
    0.7628    0.7924    3.7812 H   0  0  0  1  0  0  0  0  0  0  0  0
   -0.4237    1.5323    2.7328 H   0  0  0  1  0  0  0  0  0  0  0  0
   -0.5618    1.9364    0.7845 H   0  0  0  1  0  0  0  0  0  0  0  0
    0.6405    3.7143    3.0961 H   0  0  0  1  0  0  0  0  0  0  0  0
    1.7863    2.9618    4.1800 H   0  0  0  1  0  0  0  0  0  0  0  0
   -0.2554   -0.9092    0.1334 H   0  0  0  1  0  0  0  0  0  0  0  0
   -0.1123    2.2051    5.5551 H   0  0  0  1  0  0  0  0  0  0  0  0
   -1.1719    3.1335    4.5209 H   0  0  0  1  0  0  0  0  0  0  0  0
   -4.0962   -2.9644    1.1240 H   0  0  0  1  0  0  0  0  0  0  0  0
   -3.6082   -4.9291    0.1012 H   0  0  0  1  0  0  0  0  0  0  0  0
   -1.3968   -3.5116   -1.3218 H   0  0  0  1  0  0  0  0  0  0  0  0
   -2.0463   -5.0913   -1.6917 H   0  0  0  1  0  0  0  0  0  0  0  0
    0.5267    4.0033    6.7126 H   0  0  0  1  0  0  0  0  0  0  0  0
   -0.9248    4.7239    6.0596 H   0  0  0  1  0  0  0  0  0  0  0  0
    0.6171    5.0124    5.2891 H   0  0  0  1  0  0  0  0  0  0  0  0
   -0.8799   -6.0857    0.0701 H   0  0  0  1  0  0  0  0  0  0  0  0
   -0.4494   -4.5347    0.7508 H   0  0  0  1  0  0  0  0  0  0  0  0
    0.6447   -5.7679   -1.7494 H   0  0  0  1  0  0  0  0  0  0  0  0
    1.4945   -5.4831   -0.2491 H   0  0  0  1  0  0  0  0  0  0  0  0
  1 34  1  0  0  0  0
  2  4  1  0  0  0  0
  3  4  1  0  0  0  0
  4  5  1  0  0  0  0
  4 32  1  0  0  0  0
  6 10  1  0  0  0  0
  6 26  1  0  0  0  0
  6 42  1  0  0  0  0
  7  8  1  0  0  0  0
  7  9  2  0  0  0  0
  7 13  1  0  0  0  0
  8 43  1  0  0  0  0
  8 44  1  0  0  0  0
  8 45  1  0  0  0  0
 10 46  1  0  0  0  0
 10 47  1  0  0  0  0
 10 48  1  0  0  0  0
 11 27  1  0  0  0  0
 11 49  1  0  0  0  0
 12 26  2  0  0  0  0
 13 23  1  0  0  0  0
 13 50  1  0  0  0  0
 14 41  1  0  0  0  0
 15 24  1  0  0  0  0
 15 32  4  0  0  0  0
 15 34  4  0  0  0  0
 16 41  2  0  0  0  0
 17 18  1  0  0  0  0
 17 20  1  0  0  0  0
 17 51  1  0  0  0  0
 17 52  1  0  0  0  0
 18 23  1  0  0  0  0
 18 53  1  0  0  0  0
 18 54  1  0  0  0  0
 19 21  4  0  0  0  0
 19 29  1  0  0  0  0
 19 32  4  0  0  0  0
 20 24  1  0  0  0  0
 20 55  1  0  0  0  0
 20 56  1  0  0  0  0
 21 25  1  0  0  0  0
 21 34  4  0  0  0  0
 22 27  1  0  0  0  0
 22 28  1  0  0  0  0
 22 57  1  0  0  0  0
 22 58  1  0  0  0  0
 23 26  1  0  0  0  0
 23 59  1  0  0  0  0
 24 60  1  0  0  0  0
 24 61  1  0  0  0  0
 25 35  1  0  0  0  0
 25 62  1  0  0  0  0
 25 63  1  0  0  0  0
 27 31  1  0  0  0  0
 27 64  1  0  0  0  0
 28 30  1  0  0  0  0
 28 65  1  0  0  0  0
 28 66  1  0  0  0  0
 29 31  2  0  0  0  0
 29 67  1  0  0  0  0
 30 33  1  0  0  0  0
 30 68  1  0  0  0  0
 30 69  1  0  0  0  0
 31 70  1  0  0  0  0
 33 38  1  0  0  0  0
 33 71  1  0  0  0  0
 33 72  1  0  0  0  0
 35 36  2  0  0  0  0
 35 73  1  0  0  0  0
 36 37  1  0  0  0  0
 36 74  1  0  0  0  0
 37 39  1  0  0  0  0
 37 75  1  0  0  0  0
 37 76  1  0  0  0  0
 38 77  1  0  0  0  0
 38 78  1  0  0  0  0
 38 79  1  0  0  0  0
 39 40  1  0  0  0  0
 39 80  1  0  0  0  0
 39 81  1  0  0  0  0
 40 41  1  0  0  0  0
 40 82  1  0  0  0  0
 40 83  1  0  0  0  0
M  END
> <ConfClashScore>
0 

> <ConfOneFourInteractionScore>
-0.992484 

> <ConfScore>
0.0687424 

> <ConfScorePBest>
0.00407438 

> <ConfTolerance>
1.9631 

$$$$
9548876
  PyMOL2.2          3D                             0

 83 83  0  0  0  0  0  0  0  0999 V2000
   -5.0213   -1.0371   -0.1158 H   0  0  0  1  0  0  0  0  0  0  0  0
   -2.2081    3.4278   -0.5390 H   0  0  0  1  0  0  0  0  0  0  0  0
   -3.2656    3.6268    0.8374 H   0  0  0  1  0  0  0  0  0  0  0  0
   -3.1666    3.1833   -0.1313 C   0  0  0  1  0  0  0  0  0  0  0  0
   -3.9342    3.5580   -0.7758 H   0  0  0  1  0  0  0  0  0  0  0  0
   -8.9701   -0.2028   -5.2087 N   0  0  0  1  0  0  0  0  0  0  0  0
   -5.6662   -0.0767   -7.4653 C   0  0  0  1  0  0  0  0  0  0  0  0
   -5.9471    0.3535   -8.8919 C   0  0  0  1  0  0  0  0  0  0  0  0
   -4.5879   -0.5507   -7.1476 O   0  0  0  1  0  0  0  0  0  0  0  0
  -10.3226   -0.6245   -4.8759 C   0  0  0  1  0  0  0  0  0  0  0  0
    1.6666    1.6731    0.2551 O   0  0  0  1  0  0  0  0  0  0  0  0
   -7.9396   -1.6848   -3.8566 O   0  0  0  1  0  0  0  0  0  0  0  0
   -6.6719    0.0993   -6.5947 N   0  0  0  1  0  0  0  0  0  0  0  0
    2.4750   -4.7131   -3.9861 O   0  5  0  1  0  0  0  0  0  0  0  0
   -4.4764    1.0528   -0.2057 N   0  0  0  1  0  0  0  0  0  0  0  0
    1.4191   -4.3036   -5.9404 O   0  0  0  1  0  0  0  0  0  0  0  0
   -5.9927    0.6474   -2.8700 C   0  0  0  1  0  0  0  0  0  0  0  0
   -6.0735    0.9395   -4.3604 C   0  0  0  1  0  0  0  0  0  0  0  0
   -2.3295    0.7519    0.2850 C   0  0  0  1  0  0  0  0  0  0  0  0
   -5.8601    1.8741   -2.0337 C   0  0  0  1  0  0  0  0  0  0  0  0
   -2.9598   -0.5009    0.2747 C   0  0  0  1  0  0  0  0  0  0  0  0
    2.0013    0.6261    2.4143 C   0  0  0  1  0  0  0  0  0  0  0  0
   -6.5540   -0.2563   -5.1885 C   0  0  0  1  0  0  0  0  0  0  0  0
   -5.7470    1.6950   -0.5437 C   0  0  0  1  0  0  0  0  0  0  0  0
   -2.2504   -1.8041    0.5575 C   0  0  0  1  0  0  0  0  0  0  0  0
   -7.8909   -0.7701   -4.6624 C   0  0  0  1  0  0  0  0  0  0  0  0
    1.4226    0.4823    1.0014 C   0  0  0  1  0  0  0  0  0  0  0  0
    1.9041   -0.6122    3.2904 C   0  0  0  1  0  0  0  0  0  0  0  0
   -0.9283    1.0512    0.5541 C   0  0  0  1  0  0  0  0  0  0  0  0
    2.4596   -0.4081    4.6781 C   0  0  0  1  0  0  0  0  0  0  0  0
   -0.0383    0.2017    1.0656 C   0  0  0  1  0  0  0  0  0  0  0  0
   -3.2949    1.7034   -0.0150 C   0  0  0  1  0  0  0  0  0  0  0  0
    2.3443   -1.6008    5.6100 C   0  0  0  1  0  0  0  0  0  0  0  0
   -4.2917   -0.3007   -0.0318 C   0  0  0  1  0  0  0  0  0  0  0  0
   -2.6897   -2.9499   -0.2977 C   0  0  0  1  0  0  0  0  0  0  0  0
   -2.0031   -3.5343   -1.2475 C   0  0  0  1  0  0  0  0  0  0  0  0
   -0.7599   -2.9708   -1.8822 C   0  0  0  1  0  0  0  0  0  0  0  0
    3.0417   -1.3928    6.9435 C   0  0  0  1  0  0  0  0  0  0  0  0
   -0.2154   -3.9215   -2.9403 C   0  0  0  1  0  0  0  0  0  0  0  0
    0.6933   -3.1824   -3.9138 C   0  0  0  1  0  0  0  0  0  0  0  0
    1.5275   -4.0972   -4.7428 C   0  0  0  1  0  0  0  0  0  0  0  0
   -8.8467    0.5226   -5.8560 H   0  0  0  1  0  0  0  0  0  0  0  0
   -6.3435   -0.4737   -9.4429 H   0  0  0  1  0  0  0  0  0  0  0  0
   -5.0384    0.6842   -9.3500 H   0  0  0  1  0  0  0  0  0  0  0  0
   -6.6577    1.1535   -8.8896 H   0  0  0  1  0  0  0  0  0  0  0  0
  -10.4667   -1.6388   -5.1849 H   0  0  0  1  0  0  0  0  0  0  0  0
  -11.0263    0.0048   -5.3796 H   0  0  0  1  0  0  0  0  0  0  0  0
  -10.4693   -0.5497   -3.8187 H   0  0  0  1  0  0  0  0  0  0  0  0
    2.3013    1.4903   -0.4416 H   0  0  0  1  0  0  0  0  0  0  0  0
   -7.5152    0.4805   -6.9171 H   0  0  0  1  0  0  0  0  0  0  0  0
   -5.1427    0.0222   -2.6924 H   0  0  0  1  0  0  0  0  0  0  0  0
   -6.8830    0.1314   -2.5767 H   0  0  0  1  0  0  0  0  0  0  0  0
   -5.1001    1.2210   -4.7042 H   0  0  0  1  0  0  0  0  0  0  0  0
   -6.7539    1.7515   -4.5106 H   0  0  0  1  0  0  0  0  0  0  0  0
   -6.7216    2.4813   -2.2181 H   0  0  0  1  0  0  0  0  0  0  0  0
   -4.9822    2.3908   -2.3611 H   0  0  0  1  0  0  0  0  0  0  0  0
    1.4777    1.4194    2.9057 H   0  0  0  1  0  0  0  0  0  0  0  0
    3.0356    0.8843    2.3221 H   0  0  0  1  0  0  0  0  0  0  0  0
   -5.8332   -1.0405   -5.0866 H   0  0  0  1  0  0  0  0  0  0  0  0
   -5.7962    2.6523   -0.0683 H   0  0  0  1  0  0  0  0  0  0  0  0
   -6.5544    1.0833   -0.1993 H   0  0  0  1  0  0  0  0  0  0  0  0
   -2.4261   -2.0646    1.5804 H   0  0  0  1  0  0  0  0  0  0  0  0
   -1.2024   -1.6542    0.4021 H   0  0  0  1  0  0  0  0  0  0  0  0
    1.9045   -0.3458    0.5251 H   0  0  0  1  0  0  0  0  0  0  0  0
    2.4488   -1.4041    2.8200 H   0  0  0  1  0  0  0  0  0  0  0  0
    0.8738   -0.8882    3.3745 H   0  0  0  1  0  0  0  0  0  0  0  0
   -0.5948    2.0098    0.3273 H   0  0  0  1  0  0  0  0  0  0  0  0
    1.9364    0.4112    5.1252 H   0  0  0  1  0  0  0  0  0  0  0  0
    3.4966   -0.1616    4.5850 H   0  0  0  1  0  0  0  0  0  0  0  0
   -0.3703   -0.6739    1.5182 H   0  0  0  1  0  0  0  0  0  0  0  0
    2.7800   -2.4511    5.1282 H   0  0  0  1  0  0  0  0  0  0  0  0
    1.3071   -1.7877    5.7951 H   0  0  0  1  0  0  0  0  0  0  0  0
   -3.6438   -3.3230   -0.1187 H   0  0  0  1  0  0  0  0  0  0  0  0
   -2.3421   -4.4563   -1.5887 H   0  0  0  1  0  0  0  0  0  0  0  0
   -0.0164   -2.8235   -1.1270 H   0  0  0  1  0  0  0  0  0  0  0  0
   -0.9942   -2.0328   -2.3406 H   0  0  0  1  0  0  0  0  0  0  0  0
    4.0990   -1.4939    6.8132 H   0  0  0  1  0  0  0  0  0  0  0  0
    2.6973   -2.1248    7.6438 H   0  0  0  1  0  0  0  0  0  0  0  0
    2.8201   -0.4133    7.3126 H   0  0  0  1  0  0  0  0  0  0  0  0
   -1.0332   -4.3507   -3.4805 H   0  0  0  1  0  0  0  0  0  0  0  0
    0.3425   -4.6982   -2.4603 H   0  0  0  1  0  0  0  0  0  0  0  0
    1.3430   -2.5423   -3.3543 H   0  0  0  1  0  0  0  0  0  0  0  0
    0.0847   -2.5915   -4.5661 H   0  0  0  1  0  0  0  0  0  0  0  0
  1 34  1  0  0  0  0
  2  4  1  0  0  0  0
  3  4  1  0  0  0  0
  4  5  1  0  0  0  0
  4 32  1  0  0  0  0
  6 10  1  0  0  0  0
  6 26  1  0  0  0  0
  6 42  1  0  0  0  0
  7  8  1  0  0  0  0
  7  9  2  0  0  0  0
  7 13  1  0  0  0  0
  8 43  1  0  0  0  0
  8 44  1  0  0  0  0
  8 45  1  0  0  0  0
 10 46  1  0  0  0  0
 10 47  1  0  0  0  0
 10 48  1  0  0  0  0
 11 27  1  0  0  0  0
 11 49  1  0  0  0  0
 12 26  2  0  0  0  0
 13 23  1  0  0  0  0
 13 50  1  0  0  0  0
 14 41  1  0  0  0  0
 15 24  1  0  0  0  0
 15 32  4  0  0  0  0
 15 34  4  0  0  0  0
 16 41  2  0  0  0  0
 17 18  1  0  0  0  0
 17 20  1  0  0  0  0
 17 51  1  0  0  0  0
 17 52  1  0  0  0  0
 18 23  1  0  0  0  0
 18 53  1  0  0  0  0
 18 54  1  0  0  0  0
 19 21  4  0  0  0  0
 19 29  1  0  0  0  0
 19 32  4  0  0  0  0
 20 24  1  0  0  0  0
 20 55  1  0  0  0  0
 20 56  1  0  0  0  0
 21 25  1  0  0  0  0
 21 34  4  0  0  0  0
 22 27  1  0  0  0  0
 22 28  1  0  0  0  0
 22 57  1  0  0  0  0
 22 58  1  0  0  0  0
 23 26  1  0  0  0  0
 23 59  1  0  0  0  0
 24 60  1  0  0  0  0
 24 61  1  0  0  0  0
 25 35  1  0  0  0  0
 25 62  1  0  0  0  0
 25 63  1  0  0  0  0
 27 31  1  0  0  0  0
 27 64  1  0  0  0  0
 28 30  1  0  0  0  0
 28 65  1  0  0  0  0
 28 66  1  0  0  0  0
 29 31  2  0  0  0  0
 29 67  1  0  0  0  0
 30 33  1  0  0  0  0
 30 68  1  0  0  0  0
 30 69  1  0  0  0  0
 31 70  1  0  0  0  0
 33 38  1  0  0  0  0
 33 71  1  0  0  0  0
 33 72  1  0  0  0  0
 35 36  2  0  0  0  0
 35 73  1  0  0  0  0
 36 37  1  0  0  0  0
 36 74  1  0  0  0  0
 37 39  1  0  0  0  0
 37 75  1  0  0  0  0
 37 76  1  0  0  0  0
 38 77  1  0  0  0  0
 38 78  1  0  0  0  0
 38 79  1  0  0  0  0
 39 40  1  0  0  0  0
 39 80  1  0  0  0  0
 39 81  1  0  0  0  0
 40 41  1  0  0  0  0
 40 82  1  0  0  0  0
 40 83  1  0  0  0  0
M  END
> <ConfClashScore>
0 

> <ConfOneFourInteractionScore>
-0.986086 

> <ConfScore>
0.0687617 

> <ConfScorePBest>
0.00404589 

> <ConfTolerance>
2.18521 

$$$$
9548876
  PyMOL2.2          3D                             0

 83 83  0  0  0  0  0  0  0  0999 V2000
   -5.0023   -1.0444   -0.1070 H   0  0  0  1  0  0  0  0  0  0  0  0
   -3.5165    3.6348    0.7739 H   0  0  0  1  0  0  0  0  0  0  0  0
   -3.8386    3.5003   -0.9380 H   0  0  0  1  0  0  0  0  0  0  0  0
   -3.2007    3.1792   -0.1413 C   0  0  0  1  0  0  0  0  0  0  0  0
   -2.1921    3.4670   -0.3532 H   0  0  0  1  0  0  0  0  0  0  0  0
   -4.8150    3.1171   -6.8896 N   0  0  0  1  0  0  0  0  0  0  0  0
   -3.2186    3.2512   -4.3839 C   0  0  0  1  0  0  0  0  0  0  0  0
   -2.3016    4.4112   -4.1266 C   0  0  0  1  0  0  0  0  0  0  0  0
   -2.8355    2.1230   -4.6295 O   0  0  0  1  0  0  0  0  0  0  0  0
   -4.9258    3.1905   -8.3388 C   0  0  0  1  0  0  0  0  0  0  0  0
    1.9119    1.7853    0.3299 O   0  0  0  1  0  0  0  0  0  0  0  0
   -6.3575    1.5001   -6.6343 O   0  0  0  1  0  0  0  0  0  0  0  0
   -4.5246    3.5172   -4.3303 N   0  0  0  1  0  0  0  0  0  0  0  0
   -0.3527   -4.0465   -6.2921 O   0  5  0  1  0  0  0  0  0  0  0  0
   -4.4582    1.0455   -0.2006 N   0  0  0  1  0  0  0  0  0  0  0  0
   -1.4949   -2.1974   -5.5302 O   0  0  0  1  0  0  0  0  0  0  0  0
   -6.8819    2.9076   -2.5222 C   0  0  0  1  0  0  0  0  0  0  0  0
   -6.9178    3.0079   -4.0350 C   0  0  0  1  0  0  0  0  0  0  0  0
   -2.3111    0.7463    0.2902 C   0  0  0  1  0  0  0  0  0  0  0  0
   -5.8017    2.0472   -2.0210 C   0  0  0  1  0  0  0  0  0  0  0  0
   -2.9409   -0.5068    0.2821 C   0  0  0  1  0  0  0  0  0  0  0  0
    2.1743   -0.1527    1.7403 C   0  0  0  1  0  0  0  0  0  0  0  0
   -5.5819    2.5664   -4.6401 C   0  0  0  1  0  0  0  0  0  0  0  0
   -5.6742    1.7864   -0.5376 C   0  0  0  1  0  0  0  0  0  0  0  0
   -2.2812   -1.8371    0.5590 C   0  0  0  1  0  0  0  0  0  0  0  0
   -5.6385    2.3711   -6.1478 C   0  0  0  1  0  0  0  0  0  0  0  0
    1.5338    0.4207    0.4751 C   0  0  0  1  0  0  0  0  0  0  0  0
    3.6737    0.0967    1.7456 C   0  0  0  1  0  0  0  0  0  0  0  0
   -0.9082    1.0469    0.5588 C   0  0  0  1  0  0  0  0  0  0  0  0
    4.3486   -0.3861    2.9839 C   0  0  0  1  0  0  0  0  0  0  0  0
    0.0720    0.2606    0.5090 C   0  0  0  1  0  0  0  0  0  0  0  0
   -3.2769    1.6968   -0.0112 C   0  0  0  1  0  0  0  0  0  0  0  0
    5.8569   -0.2490    3.0627 C   0  0  0  1  0  0  0  0  0  0  0  0
   -4.2730   -0.3076   -0.0244 C   0  0  0  1  0  0  0  0  0  0  0  0
   -3.1552   -2.9912    0.1832 C   0  0  0  1  0  0  0  0  0  0  0  0
   -2.8653   -3.8845   -0.7326 C   0  0  0  1  0  0  0  0  0  0  0  0
   -1.6372   -3.8579   -1.6026 C   0  0  0  1  0  0  0  0  0  0  0  0
    6.4611   -0.9298    4.2801 C   0  0  0  1  0  0  0  0  0  0  0  0
   -1.8942   -3.6514   -3.0864 C   0  0  0  1  0  0  0  0  0  0  0  0
   -0.6203   -3.6138   -3.9203 C   0  0  0  1  0  0  0  0  0  0  0  0
   -0.8619   -3.2224   -5.3376 C   0  0  0  1  0  0  0  0  0  0  0  0
   -4.1119    3.6328   -6.4423 H   0  0  0  1  0  0  0  0  0  0  0  0
   -2.1953    4.9878   -5.0217 H   0  0  0  1  0  0  0  0  0  0  0  0
   -1.3430    4.0469   -3.8214 H   0  0  0  1  0  0  0  0  0  0  0  0
   -2.7128    5.0259   -3.3534 H   0  0  0  1  0  0  0  0  0  0  0  0
   -4.6960    2.2356   -8.7634 H   0  0  0  1  0  0  0  0  0  0  0  0
   -4.2390    3.9211   -8.7122 H   0  0  0  1  0  0  0  0  0  0  0  0
   -5.9237    3.4687   -8.6064 H   0  0  0  1  0  0  0  0  0  0  0  0
    1.4667    2.3138    0.9964 H   0  0  0  1  0  0  0  0  0  0  0  0
   -4.7923    4.4210   -4.0621 H   0  0  0  1  0  0  0  0  0  0  0  0
   -7.8165    2.5092   -2.1863 H   0  0  0  1  0  0  0  0  0  0  0  0
   -6.7473    3.8900   -2.1201 H   0  0  0  1  0  0  0  0  0  0  0  0
   -7.1115    4.0223   -4.3149 H   0  0  0  1  0  0  0  0  0  0  0  0
   -7.6978    2.3787   -4.4099 H   0  0  0  1  0  0  0  0  0  0  0  0
   -4.8808    2.4906   -2.3375 H   0  0  0  1  0  0  0  0  0  0  0  0
   -5.9205    1.0945   -2.4935 H   0  0  0  1  0  0  0  0  0  0  0  0
    1.9938   -1.2067    1.7781 H   0  0  0  1  0  0  0  0  0  0  0  0
    1.7377    0.3154    2.5977 H   0  0  0  1  0  0  0  0  0  0  0  0
   -5.3273    1.6241   -4.2019 H   0  0  0  1  0  0  0  0  0  0  0  0
   -5.6568    2.7253   -0.0247 H   0  0  0  1  0  0  0  0  0  0  0  0
   -6.5219    1.2188   -0.2151 H   0  0  0  1  0  0  0  0  0  0  0  0
   -2.0581   -1.8999    1.6036 H   0  0  0  1  0  0  0  0  0  0  0  0
   -1.3732   -1.8950   -0.0042 H   0  0  0  1  0  0  0  0  0  0  0  0
    1.9058   -0.1362   -0.3594 H   0  0  0  1  0  0  0  0  0  0  0  0
    3.8428    1.1494    1.6555 H   0  0  0  1  0  0  0  0  0  0  0  0
    4.1045   -0.4074    0.9059 H   0  0  0  1  0  0  0  0  0  0  0  0
   -0.6934    2.0295    0.8232 H   0  0  0  1  0  0  0  0  0  0  0  0
    4.1161   -1.4251    3.0903 H   0  0  0  1  0  0  0  0  0  0  0  0
    3.9347    0.1586    3.8066 H   0  0  0  1  0  0  0  0  0  0  0  0
   -0.2195   -0.7375    0.4866 H   0  0  0  1  0  0  0  0  0  0  0  0
    6.1015    0.7920    3.0999 H   0  0  0  1  0  0  0  0  0  0  0  0
    6.2836   -0.6850    2.1836 H   0  0  0  1  0  0  0  0  0  0  0  0
   -4.0602   -3.0931    0.6853 H   0  0  0  1  0  0  0  0  0  0  0  0
   -3.5338   -4.6696   -0.8676 H   0  0  0  1  0  0  0  0  0  0  0  0
   -1.1274   -4.7910   -1.4827 H   0  0  0  1  0  0  0  0  0  0  0  0
   -1.0089   -3.0614   -1.2625 H   0  0  0  1  0  0  0  0  0  0  0  0
    7.5280   -0.9237    4.2000 H   0  0  0  1  0  0  0  0  0  0  0  0
    6.1134   -1.9404    4.3324 H   0  0  0  1  0  0  0  0  0  0  0  0
    6.1670   -0.4047    5.1647 H   0  0  0  1  0  0  0  0  0  0  0  0
   -2.4115   -2.7236   -3.2151 H   0  0  0  1  0  0  0  0  0  0  0  0
   -2.5073   -4.4541   -3.4394 H   0  0  0  1  0  0  0  0  0  0  0  0
   -0.1756   -4.5869   -3.9068 H   0  0  0  1  0  0  0  0  0  0  0  0
    0.0530   -2.9072   -3.4819 H   0  0  0  1  0  0  0  0  0  0  0  0
  1 34  1  0  0  0  0
  2  4  1  0  0  0  0
  3  4  1  0  0  0  0
  4  5  1  0  0  0  0
  4 32  1  0  0  0  0
  6 10  1  0  0  0  0
  6 26  1  0  0  0  0
  6 42  1  0  0  0  0
  7  8  1  0  0  0  0
  7  9  2  0  0  0  0
  7 13  1  0  0  0  0
  8 43  1  0  0  0  0
  8 44  1  0  0  0  0
  8 45  1  0  0  0  0
 10 46  1  0  0  0  0
 10 47  1  0  0  0  0
 10 48  1  0  0  0  0
 11 27  1  0  0  0  0
 11 49  1  0  0  0  0
 12 26  2  0  0  0  0
 13 23  1  0  0  0  0
 13 50  1  0  0  0  0
 14 41  1  0  0  0  0
 15 24  1  0  0  0  0
 15 32  4  0  0  0  0
 15 34  4  0  0  0  0
 16 41  2  0  0  0  0
 17 18  1  0  0  0  0
 17 20  1  0  0  0  0
 17 51  1  0  0  0  0
 17 52  1  0  0  0  0
 18 23  1  0  0  0  0
 18 53  1  0  0  0  0
 18 54  1  0  0  0  0
 19 21  4  0  0  0  0
 19 29  1  0  0  0  0
 19 32  4  0  0  0  0
 20 24  1  0  0  0  0
 20 55  1  0  0  0  0
 20 56  1  0  0  0  0
 21 25  1  0  0  0  0
 21 34  4  0  0  0  0
 22 27  1  0  0  0  0
 22 28  1  0  0  0  0
 22 57  1  0  0  0  0
 22 58  1  0  0  0  0
 23 26  1  0  0  0  0
 23 59  1  0  0  0  0
 24 60  1  0  0  0  0
 24 61  1  0  0  0  0
 25 35  1  0  0  0  0
 25 62  1  0  0  0  0
 25 63  1  0  0  0  0
 27 31  1  0  0  0  0
 27 64  1  0  0  0  0
 28 30  1  0  0  0  0
 28 65  1  0  0  0  0
 28 66  1  0  0  0  0
 29 31  2  0  0  0  0
 29 67  1  0  0  0  0
 30 33  1  0  0  0  0
 30 68  1  0  0  0  0
 30 69  1  0  0  0  0
 31 70  1  0  0  0  0
 33 38  1  0  0  0  0
 33 71  1  0  0  0  0
 33 72  1  0  0  0  0
 35 36  2  0  0  0  0
 35 73  1  0  0  0  0
 36 37  1  0  0  0  0
 36 74  1  0  0  0  0
 37 39  1  0  0  0  0
 37 75  1  0  0  0  0
 37 76  1  0  0  0  0
 38 77  1  0  0  0  0
 38 78  1  0  0  0  0
 38 79  1  0  0  0  0
 39 40  1  0  0  0  0
 39 80  1  0  0  0  0
 39 81  1  0  0  0  0
 40 41  1  0  0  0  0
 40 82  1  0  0  0  0
 40 83  1  0  0  0  0
M  END
> <ConfClashScore>
5.95614e-05 

> <ConfOneFourInteractionScore>
-0.972823 

> <ConfScore>
0.0695511 

> <ConfScorePBest>
0.00401741 

> <ConfTolerance>
2.21134 

$$$$
9548876
  PyMOL2.2          3D                             0

 83 83  0  0  0  0  0  0  0  0999 V2000
   -4.9836   -1.0264   -0.1466 H   0  0  0  1  0  0  0  0  0  0  0  0
   -2.1954    3.5272    0.0442 H   0  0  0  1  0  0  0  0  0  0  0  0
   -3.8678    3.6812    0.5256 H   0  0  0  1  0  0  0  0  0  0  0  0
   -3.1943    3.1965   -0.1499 C   0  0  0  1  0  0  0  0  0  0  0  0
   -3.4612    3.4405   -1.1569 H   0  0  0  1  0  0  0  0  0  0  0  0
  -10.7659    3.6216    0.8435 N   0  0  0  1  0  0  0  0  0  0  0  0
  -11.1178    4.4243   -1.8972 C   0  0  0  1  0  0  0  0  0  0  0  0
  -10.7806    5.7800   -2.4867 C   0  0  0  1  0  0  0  0  0  0  0  0
  -12.2757    4.1226   -1.6110 O   0  0  0  1  0  0  0  0  0  0  0  0
  -11.3085    3.9589    2.1510 C   0  0  0  1  0  0  0  0  0  0  0  0
    1.7354    1.8551    1.0556 O   0  0  0  1  0  0  0  0  0  0  0  0
  -11.8007    1.6337    0.5902 O   0  0  0  1  0  0  0  0  0  0  0  0
  -10.0794    3.5933   -1.7143 N   0  0  0  1  0  0  0  0  0  0  0  0
   -3.4274   -0.2263    7.2432 O   0  5  0  1  0  0  0  0  0  0  0  0
   -4.4519    1.0686   -0.1744 N   0  0  0  1  0  0  0  0  0  0  0  0
   -2.1341    0.1459    5.3932 O   0  0  0  1  0  0  0  0  0  0  0  0
   -8.1127    2.1384    0.2402 C   0  0  0  1  0  0  0  0  0  0  0  0
   -8.9378    1.5026   -0.8681 C   0  0  0  1  0  0  0  0  0  0  0  0
   -2.3059    0.7677    0.3202 C   0  0  0  1  0  0  0  0  0  0  0  0
   -6.7762    1.5045    0.5750 C   0  0  0  1  0  0  0  0  0  0  0  0
   -2.9279   -0.4884    0.2708 C   0  0  0  1  0  0  0  0  0  0  0  0
    1.9617   -0.1546    2.3783 C   0  0  0  1  0  0  0  0  0  0  0  0
  -10.2308    2.2841   -1.0971 C   0  0  0  1  0  0  0  0  0  0  0  0
   -5.7247    1.7120   -0.5016 C   0  0  0  1  0  0  0  0  0  0  0  0
   -2.3145   -1.8540    0.5024 C   0  0  0  1  0  0  0  0  0  0  0  0
  -10.9933    2.4665    0.2119 C   0  0  0  1  0  0  0  0  0  0  0  0
    1.5201    0.4446    1.0466 C   0  0  0  1  0  0  0  0  0  0  0  0
    2.1588   -1.6493    2.3255 C   0  0  0  1  0  0  0  0  0  0  0  0
   -0.9114    0.9493    0.6133 C   0  0  0  1  0  0  0  0  0  0  0  0
    2.4981   -2.3104    3.6480 C   0  0  0  1  0  0  0  0  0  0  0  0
    0.0827    0.1410    0.7918 C   0  0  0  1  0  0  0  0  0  0  0  0
   -3.2758    1.7210    0.0415 C   0  0  0  1  0  0  0  0  0  0  0  0
    2.7314   -3.8088    3.5309 C   0  0  0  1  0  0  0  0  0  0  0  0
   -4.2594   -0.2880   -0.0376 C   0  0  0  1  0  0  0  0  0  0  0  0
   -3.2724   -2.8904    0.9979 C   0  0  0  1  0  0  0  0  0  0  0  0
   -3.2954   -3.3676    2.2195 C   0  0  0  1  0  0  0  0  0  0  0  0
   -2.6210   -2.7927    3.4245 C   0  0  0  1  0  0  0  0  0  0  0  0
    3.3539   -4.4208    4.7751 C   0  0  0  1  0  0  0  0  0  0  0  0
   -3.5475   -2.3944    4.5617 C   0  0  0  1  0  0  0  0  0  0  0  0
   -2.7531   -2.0652    5.8127 C   0  0  0  1  0  0  0  0  0  0  0  0
   -2.7436   -0.6098    6.1320 C   0  0  0  1  0  0  0  0  0  0  0  0
  -10.1975    4.2840    0.3978 H   0  0  0  1  0  0  0  0  0  0  0  0
  -11.5621    6.4738   -2.2567 H   0  0  0  1  0  0  0  0  0  0  0  0
  -10.6827    5.6926   -3.5486 H   0  0  0  1  0  0  0  0  0  0  0  0
   -9.8592    6.1304   -2.0707 H   0  0  0  1  0  0  0  0  0  0  0  0
  -10.9367    3.2701    2.8805 H   0  0  0  1  0  0  0  0  0  0  0  0
  -12.3765    3.9023    2.1191 H   0  0  0  1  0  0  0  0  0  0  0  0
  -11.0112    4.9524    2.4148 H   0  0  0  1  0  0  0  0  0  0  0  0
    1.4780    2.2240    0.2075 H   0  0  0  1  0  0  0  0  0  0  0  0
   -9.1885    3.8783   -2.0066 H   0  0  0  1  0  0  0  0  0  0  0  0
   -8.7063    2.1217    1.1303 H   0  0  0  1  0  0  0  0  0  0  0  0
   -7.9233    3.1525   -0.0438 H   0  0  0  1  0  0  0  0  0  0  0  0
   -9.1795    0.4973   -0.5929 H   0  0  0  1  0  0  0  0  0  0  0  0
   -8.3659    1.4978   -1.7725 H   0  0  0  1  0  0  0  0  0  0  0  0
   -6.9232    0.4530    0.7076 H   0  0  0  1  0  0  0  0  0  0  0  0
   -6.4167    1.9327    1.4873 H   0  0  0  1  0  0  0  0  0  0  0  0
    1.2147    0.0634    3.1127 H   0  0  0  1  0  0  0  0  0  0  0  0
    2.8872    0.2998    2.6645 H   0  0  0  1  0  0  0  0  0  0  0  0
  -10.8468    1.6884   -1.7379 H   0  0  0  1  0  0  0  0  0  0  0  0
   -6.0895    1.3028   -1.4205 H   0  0  0  1  0  0  0  0  0  0  0  0
   -5.5576    2.7622   -0.6198 H   0  0  0  1  0  0  0  0  0  0  0  0
   -1.5320   -1.7502    1.2248 H   0  0  0  1  0  0  0  0  0  0  0  0
   -1.9024   -2.1962   -0.4239 H   0  0  0  1  0  0  0  0  0  0  0  0
    2.1020   -0.0024    0.2678 H   0  0  0  1  0  0  0  0  0  0  0  0
    2.9561   -1.8526    1.6414 H   0  0  0  1  0  0  0  0  0  0  0  0
    1.2540   -2.0883    1.9601 H   0  0  0  1  0  0  0  0  0  0  0  0
   -0.6419    1.9500    0.7013 H   0  0  0  1  0  0  0  0  0  0  0  0
    1.6881   -2.1453    4.3275 H   0  0  0  1  0  0  0  0  0  0  0  0
    3.3870   -1.8579    4.0353 H   0  0  0  1  0  0  0  0  0  0  0  0
   -0.1560   -0.8704    0.7517 H   0  0  0  1  0  0  0  0  0  0  0  0
    3.3845   -3.9866    2.7022 H   0  0  0  1  0  0  0  0  0  0  0  0
    1.7903   -4.2857    3.3527 H   0  0  0  1  0  0  0  0  0  0  0  0
   -3.9725   -3.2602    0.3236 H   0  0  0  1  0  0  0  0  0  0  0  0
   -3.8417   -4.2403    2.3661 H   0  0  0  1  0  0  0  0  0  0  0  0
   -2.0823   -1.9209    3.1168 H   0  0  0  1  0  0  0  0  0  0  0  0
   -1.9345   -3.5233    3.7985 H   0  0  0  1  0  0  0  0  0  0  0  0
    4.0329   -5.1970    4.4899 H   0  0  0  1  0  0  0  0  0  0  0  0
    2.5836   -4.8308    5.3943 H   0  0  0  1  0  0  0  0  0  0  0  0
    3.8836   -3.6654    5.3171 H   0  0  0  1  0  0  0  0  0  0  0  0
   -4.2134   -3.2051    4.7721 H   0  0  0  1  0  0  0  0  0  0  0  0
   -4.1129   -1.5345    4.2688 H   0  0  0  1  0  0  0  0  0  0  0  0
   -1.7434   -2.3892    5.6701 H   0  0  0  1  0  0  0  0  0  0  0  0
   -3.1841   -2.5921    6.6383 H   0  0  0  1  0  0  0  0  0  0  0  0
  1 34  1  0  0  0  0
  2  4  1  0  0  0  0
  3  4  1  0  0  0  0
  4  5  1  0  0  0  0
  4 32  1  0  0  0  0
  6 10  1  0  0  0  0
  6 26  1  0  0  0  0
  6 42  1  0  0  0  0
  7  8  1  0  0  0  0
  7  9  2  0  0  0  0
  7 13  1  0  0  0  0
  8 43  1  0  0  0  0
  8 44  1  0  0  0  0
  8 45  1  0  0  0  0
 10 46  1  0  0  0  0
 10 47  1  0  0  0  0
 10 48  1  0  0  0  0
 11 27  1  0  0  0  0
 11 49  1  0  0  0  0
 12 26  2  0  0  0  0
 13 23  1  0  0  0  0
 13 50  1  0  0  0  0
 14 41  1  0  0  0  0
 15 24  1  0  0  0  0
 15 32  4  0  0  0  0
 15 34  4  0  0  0  0
 16 41  2  0  0  0  0
 17 18  1  0  0  0  0
 17 20  1  0  0  0  0
 17 51  1  0  0  0  0
 17 52  1  0  0  0  0
 18 23  1  0  0  0  0
 18 53  1  0  0  0  0
 18 54  1  0  0  0  0
 19 21  4  0  0  0  0
 19 29  1  0  0  0  0
 19 32  4  0  0  0  0
 20 24  1  0  0  0  0
 20 55  1  0  0  0  0
 20 56  1  0  0  0  0
 21 25  1  0  0  0  0
 21 34  4  0  0  0  0
 22 27  1  0  0  0  0
 22 28  1  0  0  0  0
 22 57  1  0  0  0  0
 22 58  1  0  0  0  0
 23 26  1  0  0  0  0
 23 59  1  0  0  0  0
 24 60  1  0  0  0  0
 24 61  1  0  0  0  0
 25 35  1  0  0  0  0
 25 62  1  0  0  0  0
 25 63  1  0  0  0  0
 27 31  1  0  0  0  0
 27 64  1  0  0  0  0
 28 30  1  0  0  0  0
 28 65  1  0  0  0  0
 28 66  1  0  0  0  0
 29 31  2  0  0  0  0
 29 67  1  0  0  0  0
 30 33  1  0  0  0  0
 30 68  1  0  0  0  0
 30 69  1  0  0  0  0
 31 70  1  0  0  0  0
 33 38  1  0  0  0  0
 33 71  1  0  0  0  0
 33 72  1  0  0  0  0
 35 36  2  0  0  0  0
 35 73  1  0  0  0  0
 36 37  1  0  0  0  0
 36 74  1  0  0  0  0
 37 39  1  0  0  0  0
 37 75  1  0  0  0  0
 37 76  1  0  0  0  0
 38 77  1  0  0  0  0
 38 78  1  0  0  0  0
 38 79  1  0  0  0  0
 39 40  1  0  0  0  0
 39 80  1  0  0  0  0
 39 81  1  0  0  0  0
 40 41  1  0  0  0  0
 40 82  1  0  0  0  0
 40 83  1  0  0  0  0
M  END
> <ConfClashScore>
0 

> <ConfOneFourInteractionScore>
-0.982674 

> <ConfScore>
0.0702806 

> <ConfScorePBest>
0.00398893 

> <ConfTolerance>
2.02799 

$$$$
9548876
  PyMOL2.2          3D                             0

 83 83  0  0  0  0  0  0  0  0999 V2000
   -5.0307   -1.0309   -0.0879 H   0  0  0  1  0  0  0  0  0  0  0  0
   -3.4482    3.6414    0.7978 H   0  0  0  1  0  0  0  0  0  0  0  0
   -3.7961    3.5360   -0.9111 H   0  0  0  1  0  0  0  0  0  0  0  0
   -3.1614    3.1828   -0.1254 C   0  0  0  1  0  0  0  0  0  0  0  0
   -2.1451    3.4334   -0.3473 H   0  0  0  1  0  0  0  0  0  0  0  0
   -8.0008    0.0895    5.8326 N   0  0  0  1  0  0  0  0  0  0  0  0
   -7.5806   -2.3004    1.8762 C   0  0  0  1  0  0  0  0  0  0  0  0
   -8.2723   -3.4031    1.0985 C   0  0  0  1  0  0  0  0  0  0  0  0
   -6.3714   -2.1027    1.7651 O   0  0  0  1  0  0  0  0  0  0  0  0
   -8.6390    0.5361    7.0619 C   0  0  0  1  0  0  0  0  0  0  0  0
    1.8577    2.9628    0.4382 O   0  0  0  1  0  0  0  0  0  0  0  0
   -9.9155   -0.1533    4.6658 O   0  0  0  1  0  0  0  0  0  0  0  0
   -8.3700   -1.5697    2.6794 N   0  0  0  1  0  0  0  0  0  0  0  0
    0.6631   -5.7720   -0.0946 O   0  5  0  1  0  0  0  0  0  0  0  0
   -4.4795    1.0570   -0.1841 N   0  0  0  1  0  0  0  0  0  0  0  0
    2.7331   -5.6605   -1.0624 O   0  0  0  1  0  0  0  0  0  0  0  0
   -6.8831    0.5668    1.4184 C   0  0  0  1  0  0  0  0  0  0  0  0
   -7.7699    0.7936    2.6331 C   0  0  0  1  0  0  0  0  0  0  0  0
   -2.3278    0.7484    0.2797 C   0  0  0  1  0  0  0  0  0  0  0  0
   -6.6744    1.8101    0.5898 C   0  0  0  1  0  0  0  0  0  0  0  0
   -2.9626   -0.5022    0.2769 C   0  0  0  1  0  0  0  0  0  0  0  0
    1.0494    3.1315    2.7142 C   0  0  0  1  0  0  0  0  0  0  0  0
   -7.8560   -0.4754    3.4872 C   0  0  0  1  0  0  0  0  0  0  0  0
   -5.7487    1.6526   -0.6030 C   0  0  0  1  0  0  0  0  0  0  0  0
   -2.2523   -1.8118    0.5513 C   0  0  0  1  0  0  0  0  0  0  0  0
   -8.6976   -0.1899    4.7275 C   0  0  0  1  0  0  0  0  0  0  0  0
    1.0198    2.3351    1.4039 C   0  0  0  1  0  0  0  0  0  0  0  0
    2.4552    3.4053    3.2209 C   0  0  0  1  0  0  0  0  0  0  0  0
   -0.9305    1.0944    0.5245 C   0  0  0  1  0  0  0  0  0  0  0  0
    2.4189    4.2737    4.4654 C   0  0  0  1  0  0  0  0  0  0  0  0
   -0.3786    2.2318    0.8896 C   0  0  0  1  0  0  0  0  0  0  0  0
   -3.2934    1.7033   -0.0079 C   0  0  0  1  0  0  0  0  0  0  0  0
    3.7954    4.5193    5.0709 C   0  0  0  1  0  0  0  0  0  0  0  0
   -4.2975   -0.2971   -0.0128 C   0  0  0  1  0  0  0  0  0  0  0  0
   -1.6762   -1.9309    1.9265 C   0  0  0  1  0  0  0  0  0  0  0  0
   -0.6789   -2.7131    2.2554 C   0  0  0  1  0  0  0  0  0  0  0  0
    0.2548   -3.3747    1.2774 C   0  0  0  1  0  0  0  0  0  0  0  0
    3.7479    5.6632    6.0707 C   0  0  0  1  0  0  0  0  0  0  0  0
    1.4221   -4.0587    1.9449 C   0  0  0  1  0  0  0  0  0  0  0  0
    2.4838   -4.6068    1.0054 C   0  0  0  1  0  0  0  0  0  0  0  0
    1.9693   -5.3970   -0.1483 C   0  0  0  1  0  0  0  0  0  0  0  0
   -7.0260   -0.0098    5.8149 H   0  0  0  1  0  0  0  0  0  0  0  0
   -7.5544   -4.1435    0.8134 H   0  0  0  1  0  0  0  0  0  0  0  0
   -8.7260   -2.9903    0.2218 H   0  0  0  1  0  0  0  0  0  0  0  0
   -9.0247   -3.8536    1.7116 H   0  0  0  1  0  0  0  0  0  0  0  0
   -9.4621    1.1772    6.8245 H   0  0  0  1  0  0  0  0  0  0  0  0
   -7.9298    1.0722    7.6573 H   0  0  0  1  0  0  0  0  0  0  0  0
   -8.9944   -0.3128    7.6078 H   0  0  0  1  0  0  0  0  0  0  0  0
    1.4082    3.7286    0.0733 H   0  0  0  1  0  0  0  0  0  0  0  0
   -9.3259   -1.7813    2.7229 H   0  0  0  1  0  0  0  0  0  0  0  0
   -7.3376   -0.1799    0.8013 H   0  0  0  1  0  0  0  0  0  0  0  0
   -5.9288    0.2194    1.7552 H   0  0  0  1  0  0  0  0  0  0  0  0
   -8.7521    1.0630    2.3051 H   0  0  0  1  0  0  0  0  0  0  0  0
   -7.3604    1.5866    3.2233 H   0  0  0  1  0  0  0  0  0  0  0  0
   -6.2652    2.5660    1.2270 H   0  0  0  1  0  0  0  0  0  0  0  0
   -7.6293    2.1279    0.2262 H   0  0  0  1  0  0  0  0  0  0  0  0
    0.5219    2.5756    3.4610 H   0  0  0  1  0  0  0  0  0  0  0  0
    0.5584    4.0684    2.5530 H   0  0  0  1  0  0  0  0  0  0  0  0
   -6.8659   -0.7204    3.8107 H   0  0  0  1  0  0  0  0  0  0  0  0
   -6.2134    1.0191   -1.3293 H   0  0  0  1  0  0  0  0  0  0  0  0
   -5.5623    2.6138   -1.0345 H   0  0  0  1  0  0  0  0  0  0  0  0
   -1.4545   -1.9131   -0.1546 H   0  0  0  1  0  0  0  0  0  0  0  0
   -2.9543   -2.6075    0.4135 H   0  0  0  1  0  0  0  0  0  0  0  0
    1.3790    1.3474    1.6047 H   0  0  0  1  0  0  0  0  0  0  0  0
    3.0113    3.9087    2.4579 H   0  0  0  1  0  0  0  0  0  0  0  0
    2.9309    2.4760    3.4553 H   0  0  0  1  0  0  0  0  0  0  0  0
   -0.2597    0.3115    0.3875 H   0  0  0  1  0  0  0  0  0  0  0  0
    1.8072    3.7907    5.1985 H   0  0  0  1  0  0  0  0  0  0  0  0
    1.9883    5.2186    4.2074 H   0  0  0  1  0  0  0  0  0  0  0  0
   -0.9440    3.1016    0.8165 H   0  0  0  1  0  0  0  0  0  0  0  0
    4.4837    4.7648    4.2893 H   0  0  0  1  0  0  0  0  0  0  0  0
    4.1230    3.6310    5.5694 H   0  0  0  1  0  0  0  0  0  0  0  0
   -2.0994   -1.3490    2.6775 H   0  0  0  1  0  0  0  0  0  0  0  0
   -0.5200   -2.8905    3.2678 H   0  0  0  1  0  0  0  0  0  0  0  0
    0.6333   -2.6289    0.6100 H   0  0  0  1  0  0  0  0  0  0  0  0
   -0.2956   -4.1051    0.7219 H   0  0  0  1  0  0  0  0  0  0  0  0
    2.7554    6.0609    6.1115 H   0  0  0  1  0  0  0  0  0  0  0  0
    4.4274    6.4315    5.7659 H   0  0  0  1  0  0  0  0  0  0  0  0
    4.0274    5.3026    7.0385 H   0  0  0  1  0  0  0  0  0  0  0  0
    1.0399   -4.8745    2.5221 H   0  0  0  1  0  0  0  0  0  0  0  0
    1.8914   -3.3501    2.5950 H   0  0  0  1  0  0  0  0  0  0  0  0
    3.1338   -5.2382    1.5743 H   0  0  0  1  0  0  0  0  0  0  0  0
    3.0398   -3.7792    0.6168 H   0  0  0  1  0  0  0  0  0  0  0  0
  1 34  1  0  0  0  0
  2  4  1  0  0  0  0
  3  4  1  0  0  0  0
  4  5  1  0  0  0  0
  4 32  1  0  0  0  0
  6 10  1  0  0  0  0
  6 26  1  0  0  0  0
  6 42  1  0  0  0  0
  7  8  1  0  0  0  0
  7  9  2  0  0  0  0
  7 13  1  0  0  0  0
  8 43  1  0  0  0  0
  8 44  1  0  0  0  0
  8 45  1  0  0  0  0
 10 46  1  0  0  0  0
 10 47  1  0  0  0  0
 10 48  1  0  0  0  0
 11 27  1  0  0  0  0
 11 49  1  0  0  0  0
 12 26  2  0  0  0  0
 13 23  1  0  0  0  0
 13 50  1  0  0  0  0
 14 41  1  0  0  0  0
 15 24  1  0  0  0  0
 15 32  4  0  0  0  0
 15 34  4  0  0  0  0
 16 41  2  0  0  0  0
 17 18  1  0  0  0  0
 17 20  1  0  0  0  0
 17 51  1  0  0  0  0
 17 52  1  0  0  0  0
 18 23  1  0  0  0  0
 18 53  1  0  0  0  0
 18 54  1  0  0  0  0
 19 21  4  0  0  0  0
 19 29  1  0  0  0  0
 19 32  4  0  0  0  0
 20 24  1  0  0  0  0
 20 55  1  0  0  0  0
 20 56  1  0  0  0  0
 21 25  1  0  0  0  0
 21 34  4  0  0  0  0
 22 27  1  0  0  0  0
 22 28  1  0  0  0  0
 22 57  1  0  0  0  0
 22 58  1  0  0  0  0
 23 26  1  0  0  0  0
 23 59  1  0  0  0  0
 24 60  1  0  0  0  0
 24 61  1  0  0  0  0
 25 35  1  0  0  0  0
 25 62  1  0  0  0  0
 25 63  1  0  0  0  0
 27 31  1  0  0  0  0
 27 64  1  0  0  0  0
 28 30  1  0  0  0  0
 28 65  1  0  0  0  0
 28 66  1  0  0  0  0
 29 31  2  0  0  0  0
 29 67  1  0  0  0  0
 30 33  1  0  0  0  0
 30 68  1  0  0  0  0
 30 69  1  0  0  0  0
 31 70  1  0  0  0  0
 33 38  1  0  0  0  0
 33 71  1  0  0  0  0
 33 72  1  0  0  0  0
 35 36  2  0  0  0  0
 35 73  1  0  0  0  0
 36 37  1  0  0  0  0
 36 74  1  0  0  0  0
 37 39  1  0  0  0  0
 37 75  1  0  0  0  0
 37 76  1  0  0  0  0
 38 77  1  0  0  0  0
 38 78  1  0  0  0  0
 38 79  1  0  0  0  0
 39 40  1  0  0  0  0
 39 80  1  0  0  0  0
 39 81  1  0  0  0  0
 40 41  1  0  0  0  0
 40 82  1  0  0  0  0
 40 83  1  0  0  0  0
M  END
> <ConfClashScore>
0 

> <ConfOneFourInteractionScore>
-0.991153 

> <ConfScore>
0.0715973 

> <ConfScorePBest>
0.00396045 

> <ConfTolerance>
1.93803 

$$$$
9548876
  PyMOL2.2          3D                             0

 83 83  0  0  0  0  0  0  0  0999 V2000
   -4.9983   -1.0418   -0.1562 H   0  0  0  1  0  0  0  0  0  0  0  0
   -2.2145    3.4381   -0.5591 H   0  0  0  1  0  0  0  0  0  0  0  0
   -3.2656    3.6341    0.8227 H   0  0  0  1  0  0  0  0  0  0  0  0
   -3.1699    3.1900   -0.1461 C   0  0  0  1  0  0  0  0  0  0  0  0
   -3.9423    3.5610   -0.7869 H   0  0  0  1  0  0  0  0  0  0  0  0
   -8.9875    1.0656   -6.5133 N   0  0  0  1  0  0  0  0  0  0  0  0
   -6.7517   -0.3295   -4.8316 C   0  0  0  1  0  0  0  0  0  0  0  0
   -5.3755   -0.8377   -5.1974 C   0  0  0  1  0  0  0  0  0  0  0  0
   -7.6877   -1.1007   -4.6944 O   0  0  0  1  0  0  0  0  0  0  0  0
   -9.7041    1.2049   -7.7709 C   0  0  0  1  0  0  0  0  0  0  0  0
    1.6206    3.1452    1.6380 O   0  0  0  1  0  0  0  0  0  0  0  0
   -9.7753    2.9153   -5.4801 O   0  0  0  1  0  0  0  0  0  0  0  0
   -6.9121    0.9932   -4.6628 N   0  0  0  1  0  0  0  0  0  0  0  0
    0.4254   -8.1982    0.7747 O   0  5  0  1  0  0  0  0  0  0  0  0
   -4.4645    1.0512   -0.2414 N   0  0  0  1  0  0  0  0  0  0  0  0
   -1.7075   -7.3972    0.6061 O   0  0  0  1  0  0  0  0  0  0  0  0
   -7.5826    2.4314   -1.9756 C   0  0  0  1  0  0  0  0  0  0  0  0
   -7.9635    2.7956   -3.3892 C   0  0  0  1  0  0  0  0  0  0  0  0
   -2.3268    0.7653    0.2958 C   0  0  0  1  0  0  0  0  0  0  0  0
   -6.2285    1.7485   -1.8734 C   0  0  0  1  0  0  0  0  0  0  0  0
   -2.9489   -0.4915    0.2762 C   0  0  0  1  0  0  0  0  0  0  0  0
    1.8499    0.8696    0.7850 C   0  0  0  1  0  0  0  0  0  0  0  0
   -8.1892    1.5793   -4.2888 C   0  0  0  1  0  0  0  0  0  0  0  0
   -5.7665    1.6892   -0.4384 C   0  0  0  1  0  0  0  0  0  0  0  0
   -2.2875   -1.8174    0.5693 C   0  0  0  1  0  0  0  0  0  0  0  0
   -9.0447    1.9384   -5.4959 C   0  0  0  1  0  0  0  0  0  0  0  0
    1.2218    2.2523    0.6024 C   0  0  0  1  0  0  0  0  0  0  0  0
    3.3707    0.8915    0.7706 C   0  0  0  1  0  0  0  0  0  0  0  0
   -0.9224    1.0199    0.6017 C   0  0  0  1  0  0  0  0  0  0  0  0
    3.9931   -0.4949    0.7102 C   0  0  0  1  0  0  0  0  0  0  0  0
   -0.2638    2.1530    0.4841 C   0  0  0  1  0  0  0  0  0  0  0  0
   -3.2914    1.7097   -0.0277 C   0  0  0  1  0  0  0  0  0  0  0  0
    5.5044   -0.4838    0.8639 C   0  0  0  1  0  0  0  0  0  0  0  0
   -4.2752   -0.3005   -0.0592 C   0  0  0  1  0  0  0  0  0  0  0  0
   -1.4385   -2.2899   -0.5680 C   0  0  0  1  0  0  0  0  0  0  0  0
   -0.2656   -2.8670   -0.4904 C   0  0  0  1  0  0  0  0  0  0  0  0
    0.3693   -3.4703    0.7339 C   0  0  0  1  0  0  0  0  0  0  0  0
    6.0746   -1.8765    0.6729 C   0  0  0  1  0  0  0  0  0  0  0  0
   -0.2000   -4.8212    1.0901 C   0  0  0  1  0  0  0  0  0  0  0  0
    0.1362   -5.9497    0.1242 C   0  0  0  1  0  0  0  0  0  0  0  0
   -0.5023   -7.2442    0.4940 C   0  0  0  1  0  0  0  0  0  0  0  0
   -8.4200    0.2746   -6.4003 H   0  0  0  1  0  0  0  0  0  0  0  0
   -4.6659   -0.0416   -5.1100 H   0  0  0  1  0  0  0  0  0  0  0  0
   -5.3848   -1.1979   -6.2049 H   0  0  0  1  0  0  0  0  0  0  0  0
   -5.1019   -1.6332   -4.5362 H   0  0  0  1  0  0  0  0  0  0  0  0
   -9.8287    0.2415   -8.2195 H   0  0  0  1  0  0  0  0  0  0  0  0
   -9.1463    1.8359   -8.4309 H   0  0  0  1  0  0  0  0  0  0  0  0
  -10.6644    1.6397   -7.5876 H   0  0  0  1  0  0  0  0  0  0  0  0
    0.9175    3.7772    1.8046 H   0  0  0  1  0  0  0  0  0  0  0  0
   -6.1416    1.5839   -4.7963 H   0  0  0  1  0  0  0  0  0  0  0  0
   -8.3266    1.7699   -1.5835 H   0  0  0  1  0  0  0  0  0  0  0  0
   -7.5562    3.3266   -1.3901 H   0  0  0  1  0  0  0  0  0  0  0  0
   -7.1782    3.3879   -3.8103 H   0  0  0  1  0  0  0  0  0  0  0  0
   -8.8668    3.3685   -3.3603 H   0  0  0  1  0  0  0  0  0  0  0  0
   -5.5139    2.2983   -2.4496 H   0  0  0  1  0  0  0  0  0  0  0  0
   -6.3076    0.7531   -2.2579 H   0  0  0  1  0  0  0  0  0  0  0  0
    1.5122    0.2361   -0.0085 H   0  0  0  1  0  0  0  0  0  0  0  0
    1.5253    0.4707    1.7233 H   0  0  0  1  0  0  0  0  0  0  0  0
   -8.7329    0.8574   -3.7160 H   0  0  0  1  0  0  0  0  0  0  0  0
   -5.7067    2.6905   -0.0660 H   0  0  0  1  0  0  0  0  0  0  0  0
   -6.4942    1.1420    0.1236 H   0  0  0  1  0  0  0  0  0  0  0  0
   -3.0472   -2.5469    0.7580 H   0  0  0  1  0  0  0  0  0  0  0  0
   -1.6715   -1.7105    1.4376 H   0  0  0  1  0  0  0  0  0  0  0  0
    1.5847    2.6375   -0.3276 H   0  0  0  1  0  0  0  0  0  0  0  0
    3.7114    1.3779    1.6606 H   0  0  0  1  0  0  0  0  0  0  0  0
    3.6938    1.4460   -0.0856 H   0  0  0  1  0  0  0  0  0  0  0  0
   -0.3767    0.2082    0.9551 H   0  0  0  1  0  0  0  0  0  0  0  0
    3.7515   -0.9344   -0.2349 H   0  0  0  1  0  0  0  0  0  0  0  0
    3.5764   -1.0884    1.4970 H   0  0  0  1  0  0  0  0  0  0  0  0
   -0.8042    3.0222    0.2997 H   0  0  0  1  0  0  0  0  0  0  0  0
    5.7549   -0.1334    1.8434 H   0  0  0  1  0  0  0  0  0  0  0  0
    5.9268    0.1717    0.1313 H   0  0  0  1  0  0  0  0  0  0  0  0
   -1.8212   -2.1442   -1.5240 H   0  0  0  1  0  0  0  0  0  0  0  0
    0.2872   -2.9137   -1.3701 H   0  0  0  1  0  0  0  0  0  0  0  0
    0.2150   -2.8072    1.5594 H   0  0  0  1  0  0  0  0  0  0  0  0
    1.4186   -3.5794    0.5547 H   0  0  0  1  0  0  0  0  0  0  0  0
    7.1182   -1.8707    0.9092 H   0  0  0  1  0  0  0  0  0  0  0  0
    5.9412   -2.1798   -0.3445 H   0  0  0  1  0  0  0  0  0  0  0  0
    5.5667   -2.5614    1.3194 H   0  0  0  1  0  0  0  0  0  0  0  0
   -1.2653   -4.7293    1.1316 H   0  0  0  1  0  0  0  0  0  0  0  0
    0.1730   -5.0918    2.0558 H   0  0  0  1  0  0  0  0  0  0  0  0
    1.1977   -6.0843    0.1139 H   0  0  0  1  0  0  0  0  0  0  0  0
   -0.1981   -5.6721   -0.8536 H   0  0  0  1  0  0  0  0  0  0  0  0
  1 34  1  0  0  0  0
  2  4  1  0  0  0  0
  3  4  1  0  0  0  0
  4  5  1  0  0  0  0
  4 32  1  0  0  0  0
  6 10  1  0  0  0  0
  6 26  1  0  0  0  0
  6 42  1  0  0  0  0
  7  8  1  0  0  0  0
  7  9  2  0  0  0  0
  7 13  1  0  0  0  0
  8 43  1  0  0  0  0
  8 44  1  0  0  0  0
  8 45  1  0  0  0  0
 10 46  1  0  0  0  0
 10 47  1  0  0  0  0
 10 48  1  0  0  0  0
 11 27  1  0  0  0  0
 11 49  1  0  0  0  0
 12 26  2  0  0  0  0
 13 23  1  0  0  0  0
 13 50  1  0  0  0  0
 14 41  1  0  0  0  0
 15 24  1  0  0  0  0
 15 32  4  0  0  0  0
 15 34  4  0  0  0  0
 16 41  2  0  0  0  0
 17 18  1  0  0  0  0
 17 20  1  0  0  0  0
 17 51  1  0  0  0  0
 17 52  1  0  0  0  0
 18 23  1  0  0  0  0
 18 53  1  0  0  0  0
 18 54  1  0  0  0  0
 19 21  4  0  0  0  0
 19 29  1  0  0  0  0
 19 32  4  0  0  0  0
 20 24  1  0  0  0  0
 20 55  1  0  0  0  0
 20 56  1  0  0  0  0
 21 25  1  0  0  0  0
 21 34  4  0  0  0  0
 22 27  1  0  0  0  0
 22 28  1  0  0  0  0
 22 57  1  0  0  0  0
 22 58  1  0  0  0  0
 23 26  1  0  0  0  0
 23 59  1  0  0  0  0
 24 60  1  0  0  0  0
 24 61  1  0  0  0  0
 25 35  1  0  0  0  0
 25 62  1  0  0  0  0
 25 63  1  0  0  0  0
 27 31  1  0  0  0  0
 27 64  1  0  0  0  0
 28 30  1  0  0  0  0
 28 65  1  0  0  0  0
 28 66  1  0  0  0  0
 29 31  2  0  0  0  0
 29 67  1  0  0  0  0
 30 33  1  0  0  0  0
 30 68  1  0  0  0  0
 30 69  1  0  0  0  0
 31 70  1  0  0  0  0
 33 38  1  0  0  0  0
 33 71  1  0  0  0  0
 33 72  1  0  0  0  0
 35 36  2  0  0  0  0
 35 73  1  0  0  0  0
 36 37  1  0  0  0  0
 36 74  1  0  0  0  0
 37 39  1  0  0  0  0
 37 75  1  0  0  0  0
 37 76  1  0  0  0  0
 38 77  1  0  0  0  0
 38 78  1  0  0  0  0
 38 79  1  0  0  0  0
 39 40  1  0  0  0  0
 39 80  1  0  0  0  0
 39 81  1  0  0  0  0
 40 41  1  0  0  0  0
 40 82  1  0  0  0  0
 40 83  1  0  0  0  0
M  END
> <ConfClashScore>
0 

> <ConfOneFourInteractionScore>
-0.988083 

> <ConfScore>
0.0796531 

> <ConfScorePBest>
0.00393197 

> <ConfTolerance>
2.07156 

$$$$
9548876
  PyMOL2.2          3D                             0

 83 83  0  0  0  0  0  0  0  0999 V2000
   -5.0138   -1.0344   -0.1558 H   0  0  0  1  0  0  0  0  0  0  0  0
   -3.0482    3.4559   -1.1784 H   0  0  0  1  0  0  0  0  0  0  0  0
   -2.3144    3.5197    0.4060 H   0  0  0  1  0  0  0  0  0  0  0  0
   -3.1677    3.1896   -0.1489 C   0  0  0  1  0  0  0  0  0  0  0  0
   -4.0488    3.6560    0.2398 H   0  0  0  1  0  0  0  0  0  0  0  0
  -10.1889    1.8659   -3.1472 N   0  0  0  1  0  0  0  0  0  0  0  0
   -8.9075    4.5491   -3.0439 C   0  0  0  1  0  0  0  0  0  0  0  0
   -9.5487    5.9230   -3.0219 C   0  0  0  1  0  0  0  0  0  0  0  0
   -8.4261    4.0914   -4.0672 O   0  0  0  1  0  0  0  0  0  0  0  0
  -10.8443    1.1804   -4.2510 C   0  0  0  1  0  0  0  0  0  0  0  0
    1.6772    1.4186    2.7618 O   0  0  0  1  0  0  0  0  0  0  0  0
   -8.2157    0.7952   -3.3638 O   0  0  0  1  0  0  0  0  0  0  0  0
   -8.9085    3.8863   -1.8765 N   0  0  0  1  0  0  0  0  0  0  0  0
   -2.1512   -8.3285    1.0579 O   0  5  0  1  0  0  0  0  0  0  0  0
   -4.4713    1.0562   -0.2426 N   0  0  0  1  0  0  0  0  0  0  0  0
   -1.0487   -6.4713    1.7185 O   0  0  0  1  0  0  0  0  0  0  0  0
   -7.8132    2.5951    0.7746 C   0  0  0  1  0  0  0  0  0  0  0  0
   -8.6191    1.9826   -0.3441 C   0  0  0  1  0  0  0  0  0  0  0  0
   -2.3347    0.7617    0.2946 C   0  0  0  1  0  0  0  0  0  0  0  0
   -6.4587    1.9163    0.8971 C   0  0  0  1  0  0  0  0  0  0  0  0
   -2.9621   -0.4925    0.2759 C   0  0  0  1  0  0  0  0  0  0  0  0
    1.6737    1.7097    0.4004 C   0  0  0  1  0  0  0  0  0  0  0  0
   -8.3469    2.5507   -1.7404 C   0  0  0  1  0  0  0  0  0  0  0  0
   -5.7707    1.6995   -0.4399 C   0  0  0  1  0  0  0  0  0  0  0  0
   -2.2080   -1.7636    0.5873 C   0  0  0  1  0  0  0  0  0  0  0  0
   -8.9168    1.6290   -2.8145 C   0  0  0  1  0  0  0  0  0  0  0  0
    0.9678    2.0556    1.7157 C   0  0  0  1  0  0  0  0  0  0  0  0
    3.1302    2.0980    0.1977 C   0  0  0  1  0  0  0  0  0  0  0  0
   -0.9508    0.9455    0.6018 C   0  0  0  1  0  0  0  0  0  0  0  0
    3.6220    1.6478   -1.1645 C   0  0  0  1  0  0  0  0  0  0  0  0
   -0.4622    1.6450    1.6570 C   0  0  0  1  0  0  0  0  0  0  0  0
   -3.2954    1.7099   -0.0295 C   0  0  0  1  0  0  0  0  0  0  0  0
    5.0097    2.1303   -1.5510 C   0  0  0  1  0  0  0  0  0  0  0  0
   -4.2877   -0.2962   -0.0594 C   0  0  0  1  0  0  0  0  0  0  0  0
   -0.9934   -1.9889   -0.2561 C   0  0  0  1  0  0  0  0  0  0  0  0
   -0.7590   -3.0736   -0.9631 C   0  0  0  1  0  0  0  0  0  0  0  0
   -1.4894   -4.3786   -0.8037 C   0  0  0  1  0  0  0  0  0  0  0  0
    5.3291    1.9294   -3.0235 C   0  0  0  1  0  0  0  0  0  0  0  0
   -0.6444   -5.6172   -0.9701 C   0  0  0  1  0  0  0  0  0  0  0  0
   -1.3378   -6.9306   -0.6471 C   0  0  0  1  0  0  0  0  0  0  0  0
   -1.4716   -7.1755    0.8165 C   0  0  0  1  0  0  0  0  0  0  0  0
  -10.6983    2.5241   -2.6299 H   0  0  0  1  0  0  0  0  0  0  0  0
   -9.4622    6.3731   -3.9888 H   0  0  0  1  0  0  0  0  0  0  0  0
   -9.0536    6.5359   -2.2979 H   0  0  0  1  0  0  0  0  0  0  0  0
  -10.5828    5.8296   -2.7635 H   0  0  0  1  0  0  0  0  0  0  0  0
  -10.2656    1.3040   -5.1424 H   0  0  0  1  0  0  0  0  0  0  0  0
  -11.8197    1.5947   -4.3990 H   0  0  0  1  0  0  0  0  0  0  0  0
  -10.9297    0.1384   -4.0231 H   0  0  0  1  0  0  0  0  0  0  0  0
    2.5691    1.2182    2.4686 H   0  0  0  1  0  0  0  0  0  0  0  0
   -9.3011    4.3169   -1.0885 H   0  0  0  1  0  0  0  0  0  0  0  0
   -8.3472    2.4812    1.6948 H   0  0  0  1  0  0  0  0  0  0  0  0
   -7.6672    3.6357    0.5728 H   0  0  0  1  0  0  0  0  0  0  0  0
   -9.6555    2.1321   -0.1237 H   0  0  0  1  0  0  0  0  0  0  0  0
   -8.4066    0.9342   -0.3676 H   0  0  0  1  0  0  0  0  0  0  0  0
   -6.5975    0.9643    1.3655 H   0  0  0  1  0  0  0  0  0  0  0  0
   -5.8275    2.5266    1.5085 H   0  0  0  1  0  0  0  0  0  0  0  0
    1.1163    2.1798   -0.3828 H   0  0  0  1  0  0  0  0  0  0  0  0
    1.6185    0.6469    0.2897 H   0  0  0  1  0  0  0  0  0  0  0  0
   -7.2868    2.6030   -1.8756 H   0  0  0  1  0  0  0  0  0  0  0  0
   -6.3839    1.0752   -1.0555 H   0  0  0  1  0  0  0  0  0  0  0  0
   -5.6273    2.6447   -0.9205 H   0  0  0  1  0  0  0  0  0  0  0  0
   -2.8725   -2.5898    0.4428 H   0  0  0  1  0  0  0  0  0  0  0  0
   -1.9010   -1.7271    1.6116 H   0  0  0  1  0  0  0  0  0  0  0  0
    1.0126    3.1166    1.8465 H   0  0  0  1  0  0  0  0  0  0  0  0
    3.7257    1.6347    0.9564 H   0  0  0  1  0  0  0  0  0  0  0  0
    3.2232    3.1615    0.2704 H   0  0  0  1  0  0  0  0  0  0  0  0
   -0.2592    0.5055   -0.0383 H   0  0  0  1  0  0  0  0  0  0  0  0
    2.9318    2.0067   -1.8992 H   0  0  0  1  0  0  0  0  0  0  0  0
    3.6304    0.5779   -1.1748 H   0  0  0  1  0  0  0  0  0  0  0  0
   -1.0985    1.8990    2.4394 H   0  0  0  1  0  0  0  0  0  0  0  0
    5.7299    1.5918   -0.9711 H   0  0  0  1  0  0  0  0  0  0  0  0
    5.0802    3.1744   -1.3280 H   0  0  0  1  0  0  0  0  0  0  0  0
   -0.2811   -1.2317   -0.2859 H   0  0  0  1  0  0  0  0  0  0  0  0
   -0.0129   -3.0249   -1.6861 H   0  0  0  1  0  0  0  0  0  0  0  0
   -2.2703   -4.4112   -1.5345 H   0  0  0  1  0  0  0  0  0  0  0  0
   -1.9169   -4.4000    0.1770 H   0  0  0  1  0  0  0  0  0  0  0  0
    4.5792    2.4058   -3.6198 H   0  0  0  1  0  0  0  0  0  0  0  0
    5.3483    0.8827   -3.2444 H   0  0  0  1  0  0  0  0  0  0  0  0
    6.2845    2.3584   -3.2427 H   0  0  0  1  0  0  0  0  0  0  0  0
    0.2049   -5.5257   -0.3257 H   0  0  0  1  0  0  0  0  0  0  0  0
   -0.3175   -5.6588   -1.9881 H   0  0  0  1  0  0  0  0  0  0  0  0
   -0.7700   -7.7299   -1.0756 H   0  0  0  1  0  0  0  0  0  0  0  0
   -2.3160   -6.9150   -1.0806 H   0  0  0  1  0  0  0  0  0  0  0  0
  1 34  1  0  0  0  0
  2  4  1  0  0  0  0
  3  4  1  0  0  0  0
  4  5  1  0  0  0  0
  4 32  1  0  0  0  0
  6 10  1  0  0  0  0
  6 26  1  0  0  0  0
  6 42  1  0  0  0  0
  7  8  1  0  0  0  0
  7  9  2  0  0  0  0
  7 13  1  0  0  0  0
  8 43  1  0  0  0  0
  8 44  1  0  0  0  0
  8 45  1  0  0  0  0
 10 46  1  0  0  0  0
 10 47  1  0  0  0  0
 10 48  1  0  0  0  0
 11 27  1  0  0  0  0
 11 49  1  0  0  0  0
 12 26  2  0  0  0  0
 13 23  1  0  0  0  0
 13 50  1  0  0  0  0
 14 41  1  0  0  0  0
 15 24  1  0  0  0  0
 15 32  4  0  0  0  0
 15 34  4  0  0  0  0
 16 41  2  0  0  0  0
 17 18  1  0  0  0  0
 17 20  1  0  0  0  0
 17 51  1  0  0  0  0
 17 52  1  0  0  0  0
 18 23  1  0  0  0  0
 18 53  1  0  0  0  0
 18 54  1  0  0  0  0
 19 21  4  0  0  0  0
 19 29  1  0  0  0  0
 19 32  4  0  0  0  0
 20 24  1  0  0  0  0
 20 55  1  0  0  0  0
 20 56  1  0  0  0  0
 21 25  1  0  0  0  0
 21 34  4  0  0  0  0
 22 27  1  0  0  0  0
 22 28  1  0  0  0  0
 22 57  1  0  0  0  0
 22 58  1  0  0  0  0
 23 26  1  0  0  0  0
 23 59  1  0  0  0  0
 24 60  1  0  0  0  0
 24 61  1  0  0  0  0
 25 35  1  0  0  0  0
 25 62  1  0  0  0  0
 25 63  1  0  0  0  0
 27 31  1  0  0  0  0
 27 64  1  0  0  0  0
 28 30  1  0  0  0  0
 28 65  1  0  0  0  0
 28 66  1  0  0  0  0
 29 31  2  0  0  0  0
 29 67  1  0  0  0  0
 30 33  1  0  0  0  0
 30 68  1  0  0  0  0
 30 69  1  0  0  0  0
 31 70  1  0  0  0  0
 33 38  1  0  0  0  0
 33 71  1  0  0  0  0
 33 72  1  0  0  0  0
 35 36  2  0  0  0  0
 35 73  1  0  0  0  0
 36 37  1  0  0  0  0
 36 74  1  0  0  0  0
 37 39  1  0  0  0  0
 37 75  1  0  0  0  0
 37 76  1  0  0  0  0
 38 77  1  0  0  0  0
 38 78  1  0  0  0  0
 38 79  1  0  0  0  0
 39 40  1  0  0  0  0
 39 80  1  0  0  0  0
 39 81  1  0  0  0  0
 40 41  1  0  0  0  0
 40 82  1  0  0  0  0
 40 83  1  0  0  0  0
M  END
> <ConfClashScore>
0 

> <ConfOneFourInteractionScore>
-0.982264 

> <ConfScore>
0.0811578 

> <ConfScorePBest>
0.00390349 

> <ConfTolerance>
1.99399 

$$$$
9548876
  PyMOL2.2          3D                             0

 83 83  0  0  0  0  0  0  0  0999 V2000
   -5.0039   -1.0395   -0.1324 H   0  0  0  1  0  0  0  0  0  0  0  0
   -3.4886    3.4957   -1.1196 H   0  0  0  1  0  0  0  0  0  0  0  0
   -2.1491    3.4762    0.0020 H   0  0  0  1  0  0  0  0  0  0  0  0
   -3.1695    3.1897   -0.1452 C   0  0  0  1  0  0  0  0  0  0  0  0
   -3.7829    3.6601    0.5948 H   0  0  0  1  0  0  0  0  0  0  0  0
  -10.7270    5.8827    3.1440 N   0  0  0  1  0  0  0  0  0  0  0  0
   -9.7496    5.4722   -0.6500 C   0  0  0  1  0  0  0  0  0  0  0  0
   -9.3947    6.4198   -1.7905 C   0  0  0  1  0  0  0  0  0  0  0  0
  -10.5910    4.5887   -0.8087 O   0  0  0  1  0  0  0  0  0  0  0  0
  -11.0938    6.6771    4.3069 C   0  0  0  1  0  0  0  0  0  0  0  0
    2.0673    2.7439    0.0049 O   0  0  0  1  0  0  0  0  0  0  0  0
   -8.5149    6.0829    3.5355 O   0  0  0  1  0  0  0  0  0  0  0  0
   -9.0177    5.6350    0.4636 N   0  0  0  1  0  0  0  0  0  0  0  0
   -3.9170   -7.5106    4.0050 O   0  5  0  1  0  0  0  0  0  0  0  0
   -4.4680    1.0526   -0.2255 N   0  0  0  1  0  0  0  0  0  0  0  0
   -2.5414   -6.2324    5.3152 O   0  0  0  1  0  0  0  0  0  0  0  0
   -7.6175    3.0386    0.6514 C   0  0  0  1  0  0  0  0  0  0  0  0
   -8.0046    3.8481    1.8782 C   0  0  0  1  0  0  0  0  0  0  0  0
   -2.3258    0.7644    0.2923 C   0  0  0  1  0  0  0  0  0  0  0  0
   -6.2679    2.3756    0.7738 C   0  0  0  1  0  0  0  0  0  0  0  0
   -2.9498   -0.4915    0.2802 C   0  0  0  1  0  0  0  0  0  0  0  0
    1.0300    3.4336    2.1077 C   0  0  0  1  0  0  0  0  0  0  0  0
   -9.1872    4.7894    1.6358 C   0  0  0  1  0  0  0  0  0  0  0  0
   -5.7599    1.6895   -0.4829 C   0  0  0  1  0  0  0  0  0  0  0  0
   -2.2876   -1.8180    0.5689 C   0  0  0  1  0  0  0  0  0  0  0  0
   -9.4398    5.6734    2.8534 C   0  0  0  1  0  0  0  0  0  0  0  0
    1.1511    2.3764    1.0161 C   0  0  0  1  0  0  0  0  0  0  0  0
    0.5304    4.7737    1.5954 C   0  0  0  1  0  0  0  0  0  0  0  0
   -0.9178    1.0176    0.5849 C   0  0  0  1  0  0  0  0  0  0  0  0
    0.6810    5.8911    2.5978 C   0  0  0  1  0  0  0  0  0  0  0  0
   -0.1900    2.0932    0.4173 C   0  0  0  1  0  0  0  0  0  0  0  0
   -3.2920    1.7097   -0.0236 C   0  0  0  1  0  0  0  0  0  0  0  0
   -0.0964    5.7194    3.8886 C   0  0  0  1  0  0  0  0  0  0  0  0
   -4.2789   -0.2992   -0.0431 C   0  0  0  1  0  0  0  0  0  0  0  0
   -2.0507   -2.0910    2.0155 C   0  0  0  1  0  0  0  0  0  0  0  0
   -2.3226   -3.1642    2.7190 C   0  0  0  1  0  0  0  0  0  0  0  0
   -2.6649   -4.5102    2.1381 C   0  0  0  1  0  0  0  0  0  0  0  0
    0.4644    4.6921    4.8584 C   0  0  0  1  0  0  0  0  0  0  0  0
   -4.0757   -4.9299    2.5401 C   0  0  0  1  0  0  0  0  0  0  0  0
   -4.2333   -5.1595    4.0343 C   0  0  0  1  0  0  0  0  0  0  0  0
   -3.4672   -6.3384    4.5277 C   0  0  0  1  0  0  0  0  0  0  0  0
  -11.4256    5.5005    2.5728 H   0  0  0  1  0  0  0  0  0  0  0  0
   -9.4319    5.8903   -2.7195 H   0  0  0  1  0  0  0  0  0  0  0  0
   -8.4082    6.8056   -1.6394 H   0  0  0  1  0  0  0  0  0  0  0  0
  -10.0950    7.2285   -1.8129 H   0  0  0  1  0  0  0  0  0  0  0  0
  -10.9837    6.0863    5.1922 H   0  0  0  1  0  0  0  0  0  0  0  0
  -12.1113    6.9950    4.2148 H   0  0  0  1  0  0  0  0  0  0  0  0
  -10.4560    7.5341    4.3687 H   0  0  0  1  0  0  0  0  0  0  0  0
    2.0596    2.0821   -0.6905 H   0  0  0  1  0  0  0  0  0  0  0  0
   -8.3460    6.3482    0.4880 H   0  0  0  1  0  0  0  0  0  0  0  0
   -7.5984    3.6931   -0.1949 H   0  0  0  1  0  0  0  0  0  0  0  0
   -8.3559    2.2793    0.4991 H   0  0  0  1  0  0  0  0  0  0  0  0
   -7.1609    4.4338    2.1783 H   0  0  0  1  0  0  0  0  0  0  0  0
   -8.2661    3.1700    2.6635 H   0  0  0  1  0  0  0  0  0  0  0  0
   -6.3311    1.6399    1.5482 H   0  0  0  1  0  0  0  0  0  0  0  0
   -5.5563    3.1252    1.0505 H   0  0  0  1  0  0  0  0  0  0  0  0
    1.9939    3.5773    2.5494 H   0  0  0  1  0  0  0  0  0  0  0  0
    0.3463    3.0780    2.8501 H   0  0  0  1  0  0  0  0  0  0  0  0
  -10.0567    4.1825    1.4919 H   0  0  0  1  0  0  0  0  0  0  0  0
   -6.4656    0.9457   -0.7889 H   0  0  0  1  0  0  0  0  0  0  0  0
   -5.6468    2.4158   -1.2605 H   0  0  0  1  0  0  0  0  0  0  0  0
   -1.3428   -1.8357    0.0669 H   0  0  0  1  0  0  0  0  0  0  0  0
   -2.9129   -2.5947    0.1808 H   0  0  0  1  0  0  0  0  0  0  0  0
    1.4932    1.4751    1.4804 H   0  0  0  1  0  0  0  0  0  0  0  0
   -0.5062    4.6773    1.3481 H   0  0  0  1  0  0  0  0  0  0  0  0
    1.0850    5.0292    0.7167 H   0  0  0  1  0  0  0  0  0  0  0  0
   -0.4081    0.2089    0.9946 H   0  0  0  1  0  0  0  0  0  0  0  0
    0.3523    6.7972    2.1331 H   0  0  0  1  0  0  0  0  0  0  0  0
    1.7185    5.9732    2.8463 H   0  0  0  1  0  0  0  0  0  0  0  0
   -0.5875    2.8306   -0.1990 H   0  0  0  1  0  0  0  0  0  0  0  0
   -1.0934    5.4242    3.6360 H   0  0  0  1  0  0  0  0  0  0  0  0
   -0.1196    6.6655    4.3877 H   0  0  0  1  0  0  0  0  0  0  0  0
   -1.6037   -1.3157    2.5453 H   0  0  0  1  0  0  0  0  0  0  0  0
   -2.3000   -3.0789    3.7552 H   0  0  0  1  0  0  0  0  0  0  0  0
   -1.9666   -5.2360    2.4993 H   0  0  0  1  0  0  0  0  0  0  0  0
   -2.6053   -4.4572    1.0711 H   0  0  0  1  0  0  0  0  0  0  0  0
    0.3905    3.7158    4.4268 H   0  0  0  1  0  0  0  0  0  0  0  0
   -0.0936    4.7216    5.7709 H   0  0  0  1  0  0  0  0  0  0  0  0
    1.4912    4.9158    5.0602 H   0  0  0  1  0  0  0  0  0  0  0  0
   -4.3176   -5.8387    2.0299 H   0  0  0  1  0  0  0  0  0  0  0  0
   -4.7566   -4.1605    2.2415 H   0  0  0  1  0  0  0  0  0  0  0  0
   -5.2704   -5.3137    4.2477 H   0  0  0  1  0  0  0  0  0  0  0  0
   -3.8880   -4.2884    4.5510 H   0  0  0  1  0  0  0  0  0  0  0  0
  1 34  1  0  0  0  0
  2  4  1  0  0  0  0
  3  4  1  0  0  0  0
  4  5  1  0  0  0  0
  4 32  1  0  0  0  0
  6 10  1  0  0  0  0
  6 26  1  0  0  0  0
  6 42  1  0  0  0  0
  7  8  1  0  0  0  0
  7  9  2  0  0  0  0
  7 13  1  0  0  0  0
  8 43  1  0  0  0  0
  8 44  1  0  0  0  0
  8 45  1  0  0  0  0
 10 46  1  0  0  0  0
 10 47  1  0  0  0  0
 10 48  1  0  0  0  0
 11 27  1  0  0  0  0
 11 49  1  0  0  0  0
 12 26  2  0  0  0  0
 13 23  1  0  0  0  0
 13 50  1  0  0  0  0
 14 41  1  0  0  0  0
 15 24  1  0  0  0  0
 15 32  4  0  0  0  0
 15 34  4  0  0  0  0
 16 41  2  0  0  0  0
 17 18  1  0  0  0  0
 17 20  1  0  0  0  0
 17 51  1  0  0  0  0
 17 52  1  0  0  0  0
 18 23  1  0  0  0  0
 18 53  1  0  0  0  0
 18 54  1  0  0  0  0
 19 21  4  0  0  0  0
 19 29  1  0  0  0  0
 19 32  4  0  0  0  0
 20 24  1  0  0  0  0
 20 55  1  0  0  0  0
 20 56  1  0  0  0  0
 21 25  1  0  0  0  0
 21 34  4  0  0  0  0
 22 27  1  0  0  0  0
 22 28  1  0  0  0  0
 22 57  1  0  0  0  0
 22 58  1  0  0  0  0
 23 26  1  0  0  0  0
 23 59  1  0  0  0  0
 24 60  1  0  0  0  0
 24 61  1  0  0  0  0
 25 35  1  0  0  0  0
 25 62  1  0  0  0  0
 25 63  1  0  0  0  0
 27 31  1  0  0  0  0
 27 64  1  0  0  0  0
 28 30  1  0  0  0  0
 28 65  1  0  0  0  0
 28 66  1  0  0  0  0
 29 31  2  0  0  0  0
 29 67  1  0  0  0  0
 30 33  1  0  0  0  0
 30 68  1  0  0  0  0
 30 69  1  0  0  0  0
 31 70  1  0  0  0  0
 33 38  1  0  0  0  0
 33 71  1  0  0  0  0
 33 72  1  0  0  0  0
 35 36  2  0  0  0  0
 35 73  1  0  0  0  0
 36 37  1  0  0  0  0
 36 74  1  0  0  0  0
 37 39  1  0  0  0  0
 37 75  1  0  0  0  0
 37 76  1  0  0  0  0
 38 77  1  0  0  0  0
 38 78  1  0  0  0  0
 38 79  1  0  0  0  0
 39 40  1  0  0  0  0
 39 80  1  0  0  0  0
 39 81  1  0  0  0  0
 40 41  1  0  0  0  0
 40 82  1  0  0  0  0
 40 83  1  0  0  0  0
M  END
> <ConfClashScore>
0 

> <ConfOneFourInteractionScore>
-0.992576 

> <ConfScore>
0.0833883 

> <ConfScorePBest>
0.00387501 

> <ConfTolerance>
1.97893 

$$$$
9548876
  PyMOL2.2          3D                             0

 83 83  0  0  0  0  0  0  0  0999 V2000
   -4.9972   -1.0264   -0.1667 H   0  0  0  1  0  0  0  0  0  0  0  0
   -2.8662    3.4481   -1.1323 H   0  0  0  1  0  0  0  0  0  0  0  0
   -2.4851    3.5748    0.5681 H   0  0  0  1  0  0  0  0  0  0  0  0
   -3.1872    3.1938   -0.1438 C   0  0  0  1  0  0  0  0  0  0  0  0
   -4.1502    3.6226    0.0396 H   0  0  0  1  0  0  0  0  0  0  0  0
   -7.1326    6.1436    4.8872 N   0  0  0  1  0  0  0  0  0  0  0  0
   -5.3739    7.4920    3.1570 C   0  0  0  1  0  0  0  0  0  0  0  0
   -3.9262    7.9174    3.3074 C   0  0  0  1  0  0  0  0  0  0  0  0
   -6.2883    8.2670    3.3839 O   0  0  0  1  0  0  0  0  0  0  0  0
   -7.7860    6.6144    6.0994 C   0  0  0  1  0  0  0  0  0  0  0  0
    1.8464    0.6963    0.4100 O   0  0  0  1  0  0  0  0  0  0  0  0
   -8.9625    6.2959    3.5777 O   0  0  0  1  0  0  0  0  0  0  0  0
   -5.5712    6.2238    2.7633 N   0  0  0  1  0  0  0  0  0  0  0  0
    4.0310   -4.5003    2.0069 O   0  5  0  1  0  0  0  0  0  0  0  0
   -4.4460    1.0624   -0.2444 N   0  0  0  1  0  0  0  0  0  0  0  0
    2.8590   -4.1856    3.9118 O   0  0  0  1  0  0  0  0  0  0  0  0
   -6.1965    3.7157    1.0309 C   0  0  0  1  0  0  0  0  0  0  0  0
   -6.9664    4.1813    2.2418 C   0  0  0  1  0  0  0  0  0  0  0  0
   -2.3185    0.7600    0.3235 C   0  0  0  1  0  0  0  0  0  0  0  0
   -6.3605    2.2178    0.8314 C   0  0  0  1  0  0  0  0  0  0  0  0
   -2.9500   -0.4920    0.2950 C   0  0  0  1  0  0  0  0  0  0  0  0
    1.8489    2.4944   -1.1942 C   0  0  0  1  0  0  0  0  0  0  0  0
   -6.9006    5.6813    2.5264 C   0  0  0  1  0  0  0  0  0  0  0  0
   -5.7400    1.7105   -0.4601 C   0  0  0  1  0  0  0  0  0  0  0  0
   -2.3032   -1.8230    0.5977 C   0  0  0  1  0  0  0  0  0  0  0  0
   -7.7771    6.0455    3.7211 C   0  0  0  1  0  0  0  0  0  0  0  0
    1.3430    1.9900    0.1629 C   0  0  0  1  0  0  0  0  0  0  0  0
    3.3644    2.5700   -1.2821 C   0  0  0  1  0  0  0  0  0  0  0  0
   -0.8894    0.9556    0.5473 C   0  0  0  1  0  0  0  0  0  0  0  0
    3.8724    2.8660   -2.6829 C   0  0  0  1  0  0  0  0  0  0  0  0
   -0.1524    1.9803    0.1904 C   0  0  0  1  0  0  0  0  0  0  0  0
   -3.2710    1.7118   -0.0139 C   0  0  0  1  0  0  0  0  0  0  0  0
    5.3172    2.6489   -2.8365 C   0  0  0  1  0  0  0  0  0  0  0  0
   -4.2698   -0.2908   -0.0593 C   0  0  0  1  0  0  0  0  0  0  0  0
   -2.2346   -2.1637    2.0477 C   0  0  0  1  0  0  0  0  0  0  0  0
   -1.2156   -2.5941    2.7605 C   0  0  0  1  0  0  0  0  0  0  0  0
    0.0565   -3.1154    2.1493 C   0  0  0  1  0  0  0  0  0  0  0  0
    5.9572    2.8508   -4.1572 C   0  0  0  1  0  0  0  0  0  0  0  0
    0.4009   -4.5225    2.3937 C   0  0  0  1  0  0  0  0  0  0  0  0
    1.7503   -5.0630    1.9391 C   0  0  0  1  0  0  0  0  0  0  0  0
    2.8896   -4.5415    2.7453 C   0  0  0  1  0  0  0  0  0  0  0  0
   -6.1869    5.8897    4.9278 H   0  0  0  1  0  0  0  0  0  0  0  0
   -3.7015    8.6793    2.5905 H   0  0  0  1  0  0  0  0  0  0  0  0
   -3.2881    7.0743    3.1434 H   0  0  0  1  0  0  0  0  0  0  0  0
   -3.7675    8.2987    4.2945 H   0  0  0  1  0  0  0  0  0  0  0  0
   -7.0454    6.8677    6.8290 H   0  0  0  1  0  0  0  0  0  0  0  0
   -8.4181    5.8426    6.4862 H   0  0  0  1  0  0  0  0  0  0  0  0
   -8.3747    7.4790    5.8741 H   0  0  0  1  0  0  0  0  0  0  0  0
    1.4302    0.3353    1.1962 H   0  0  0  1  0  0  0  0  0  0  0  0
   -4.7929    5.6432    2.6308 H   0  0  0  1  0  0  0  0  0  0  0  0
   -5.1592    3.9401    1.1671 H   0  0  0  1  0  0  0  0  0  0  0  0
   -6.5618    4.2271    0.1649 H   0  0  0  1  0  0  0  0  0  0  0  0
   -6.5796    3.6665    3.0963 H   0  0  0  1  0  0  0  0  0  0  0  0
   -7.9937    3.9175    2.1007 H   0  0  0  1  0  0  0  0  0  0  0  0
   -7.4058    1.9898    0.8181 H   0  0  0  1  0  0  0  0  0  0  0  0
   -5.8952    1.7133    1.6523 H   0  0  0  1  0  0  0  0  0  0  0  0
    1.4501    3.4730   -1.3625 H   0  0  0  1  0  0  0  0  0  0  0  0
    1.4976    1.8297   -1.9556 H   0  0  0  1  0  0  0  0  0  0  0  0
   -7.3113    6.1797    1.6733 H   0  0  0  1  0  0  0  0  0  0  0  0
   -6.4075    1.0032   -0.9065 H   0  0  0  1  0  0  0  0  0  0  0  0
   -5.6022    2.5391   -1.1229 H   0  0  0  1  0  0  0  0  0  0  0  0
   -1.3055   -1.8046    0.2116 H   0  0  0  1  0  0  0  0  0  0  0  0
   -2.8642   -2.5871    0.1015 H   0  0  0  1  0  0  0  0  0  0  0  0
    1.6886    2.6639    0.9187 H   0  0  0  1  0  0  0  0  0  0  0  0
    3.7698    1.6317   -0.9655 H   0  0  0  1  0  0  0  0  0  0  0  0
    3.7040    3.3450   -0.6272 H   0  0  0  1  0  0  0  0  0  0  0  0
   -0.3962    0.1905    1.0503 H   0  0  0  1  0  0  0  0  0  0  0  0
    3.6567    3.8885   -2.9130 H   0  0  0  1  0  0  0  0  0  0  0  0
    3.3585    2.2288   -3.3719 H   0  0  0  1  0  0  0  0  0  0  0  0
   -0.6447    2.8510   -0.0947 H   0  0  0  1  0  0  0  0  0  0  0  0
    5.5099    1.6358   -2.5509 H   0  0  0  1  0  0  0  0  0  0  0  0
    5.8042    3.3117   -2.1520 H   0  0  0  1  0  0  0  0  0  0  0  0
   -3.1237   -2.0434    2.5736 H   0  0  0  1  0  0  0  0  0  0  0  0
   -1.2935   -2.5729    3.7973 H   0  0  0  1  0  0  0  0  0  0  0  0
    0.8608   -2.5188    2.5263 H   0  0  0  1  0  0  0  0  0  0  0  0
   -0.0197   -2.9838    1.0901 H   0  0  0  1  0  0  0  0  0  0  0  0
    5.2024    2.9329   -4.9111 H   0  0  0  1  0  0  0  0  0  0  0  0
    6.5915    2.0176   -4.3771 H   0  0  0  1  0  0  0  0  0  0  0  0
    6.5401    3.7480   -4.1373 H   0  0  0  1  0  0  0  0  0  0  0  0
   -0.3482   -5.1131    1.9091 H   0  0  0  1  0  0  0  0  0  0  0  0
    0.3470   -4.6750    3.4514 H   0  0  0  1  0  0  0  0  0  0  0  0
    1.9014   -4.7856    0.9168 H   0  0  0  1  0  0  0  0  0  0  0  0
    1.7351   -6.1297    2.0212 H   0  0  0  1  0  0  0  0  0  0  0  0
  1 34  1  0  0  0  0
  2  4  1  0  0  0  0
  3  4  1  0  0  0  0
  4  5  1  0  0  0  0
  4 32  1  0  0  0  0
  6 10  1  0  0  0  0
  6 26  1  0  0  0  0
  6 42  1  0  0  0  0
  7  8  1  0  0  0  0
  7  9  2  0  0  0  0
  7 13  1  0  0  0  0
  8 43  1  0  0  0  0
  8 44  1  0  0  0  0
  8 45  1  0  0  0  0
 10 46  1  0  0  0  0
 10 47  1  0  0  0  0
 10 48  1  0  0  0  0
 11 27  1  0  0  0  0
 11 49  1  0  0  0  0
 12 26  2  0  0  0  0
 13 23  1  0  0  0  0
 13 50  1  0  0  0  0
 14 41  1  0  0  0  0
 15 24  1  0  0  0  0
 15 32  4  0  0  0  0
 15 34  4  0  0  0  0
 16 41  2  0  0  0  0
 17 18  1  0  0  0  0
 17 20  1  0  0  0  0
 17 51  1  0  0  0  0
 17 52  1  0  0  0  0
 18 23  1  0  0  0  0
 18 53  1  0  0  0  0
 18 54  1  0  0  0  0
 19 21  4  0  0  0  0
 19 29  1  0  0  0  0
 19 32  4  0  0  0  0
 20 24  1  0  0  0  0
 20 55  1  0  0  0  0
 20 56  1  0  0  0  0
 21 25  1  0  0  0  0
 21 34  4  0  0  0  0
 22 27  1  0  0  0  0
 22 28  1  0  0  0  0
 22 57  1  0  0  0  0
 22 58  1  0  0  0  0
 23 26  1  0  0  0  0
 23 59  1  0  0  0  0
 24 60  1  0  0  0  0
 24 61  1  0  0  0  0
 25 35  1  0  0  0  0
 25 62  1  0  0  0  0
 25 63  1  0  0  0  0
 27 31  1  0  0  0  0
 27 64  1  0  0  0  0
 28 30  1  0  0  0  0
 28 65  1  0  0  0  0
 28 66  1  0  0  0  0
 29 31  2  0  0  0  0
 29 67  1  0  0  0  0
 30 33  1  0  0  0  0
 30 68  1  0  0  0  0
 30 69  1  0  0  0  0
 31 70  1  0  0  0  0
 33 38  1  0  0  0  0
 33 71  1  0  0  0  0
 33 72  1  0  0  0  0
 35 36  2  0  0  0  0
 35 73  1  0  0  0  0
 36 37  1  0  0  0  0
 36 74  1  0  0  0  0
 37 39  1  0  0  0  0
 37 75  1  0  0  0  0
 37 76  1  0  0  0  0
 38 77  1  0  0  0  0
 38 78  1  0  0  0  0
 38 79  1  0  0  0  0
 39 40  1  0  0  0  0
 39 80  1  0  0  0  0
 39 81  1  0  0  0  0
 40 41  1  0  0  0  0
 40 82  1  0  0  0  0
 40 83  1  0  0  0  0
M  END
> <ConfClashScore>
0.00185567 

> <ConfOneFourInteractionScore>
-0.982674 

> <ConfScore>
0.0851558 

> <ConfScorePBest>
0.00384653 

> <ConfTolerance>
1.73397 

$$$$
9548876
  PyMOL2.2          3D                             0

 83 83  0  0  0  0  0  0  0  0999 V2000
   -5.0094   -1.0245   -0.1166 H   0  0  0  1  0  0  0  0  0  0  0  0
   -2.2650    3.4582   -0.6057 H   0  0  0  1  0  0  0  0  0  0  0  0
   -3.2334    3.6336    0.8379 H   0  0  0  1  0  0  0  0  0  0  0  0
   -3.1880    3.1907   -0.1351 C   0  0  0  1  0  0  0  0  0  0  0  0
   -4.0058    3.5449   -0.7273 H   0  0  0  1  0  0  0  0  0  0  0  0
   -9.9134   -1.0245    1.5149 N   0  0  0  1  0  0  0  0  0  0  0  0
   -8.5853    0.0471   -2.4328 C   0  0  0  1  0  0  0  0  0  0  0  0
   -8.8242    0.4301   -3.8804 C   0  0  0  1  0  0  0  0  0  0  0  0
   -7.8950   -0.9270   -2.1357 O   0  0  0  1  0  0  0  0  0  0  0  0
  -10.8652   -1.9921    2.0401 C   0  0  0  1  0  0  0  0  0  0  0  0
    1.8553    1.4766    0.3391 O   0  0  0  1  0  0  0  0  0  0  0  0
  -11.2261   -0.3453   -0.1694 O   0  0  0  1  0  0  0  0  0  0  0  0
   -9.1715    0.8343   -1.5169 N   0  0  0  1  0  0  0  0  0  0  0  0
    2.4158   -5.9445    4.5501 O   0  5  0  1  0  0  0  0  0  0  0  0
   -4.4555    1.0631   -0.2027 N   0  0  0  1  0  0  0  0  0  0  0  0
    3.9239   -4.7539    3.3324 O   0  0  0  1  0  0  0  0  0  0  0  0
   -7.8070    2.7377    0.3865 C   0  0  0  1  0  0  0  0  0  0  0  0
   -9.0522    1.9184    0.6892 C   0  0  0  1  0  0  0  0  0  0  0  0
   -2.3103    0.7522    0.2890 C   0  0  0  1  0  0  0  0  0  0  0  0
   -6.4850    2.0680    0.7245 C   0  0  0  1  0  0  0  0  0  0  0  0
   -2.9459   -0.4979    0.2762 C   0  0  0  1  0  0  0  0  0  0  0  0
    1.9703    0.8957    2.6468 C   0  0  0  1  0  0  0  0  0  0  0  0
   -9.0354    0.5980   -0.0874 C   0  0  0  1  0  0  0  0  0  0  0  0
   -5.7230    1.7114   -0.5405 C   0  0  0  1  0  0  0  0  0  0  0  0
   -2.2926   -1.8321    0.5492 C   0  0  0  1  0  0  0  0  0  0  0  0
  -10.1478   -0.3252    0.4009 C   0  0  0  1  0  0  0  0  0  0  0  0
    1.4392    0.4879    1.2685 C   0  0  0  1  0  0  0  0  0  0  0  0
    1.4612    0.0130    3.7736 C   0  0  0  1  0  0  0  0  0  0  0  0
   -0.8968    0.9907    0.5672 C   0  0  0  1  0  0  0  0  0  0  0  0
    1.8192    0.5331    5.1541 C   0  0  0  1  0  0  0  0  0  0  0  0
   -0.0471    0.3259    1.3132 C   0  0  0  1  0  0  0  0  0  0  0  0
   -3.2713    1.7083   -0.0101 C   0  0  0  1  0  0  0  0  0  0  0  0
    1.3325   -0.3131    6.3181 C   0  0  0  1  0  0  0  0  0  0  0  0
   -4.2767   -0.2914   -0.0309 C   0  0  0  1  0  0  0  0  0  0  0  0
   -0.9849   -1.9090   -0.1728 C   0  0  0  1  0  0  0  0  0  0  0  0
    0.1181   -2.4071    0.3271 C   0  0  0  1  0  0  0  0  0  0  0  0
    0.3012   -2.8188    1.7534 C   0  0  0  1  0  0  0  0  0  0  0  0
    1.6404    0.4262    7.6101 C   0  0  0  1  0  0  0  0  0  0  0  0
    1.6159   -3.5405    2.0007 C   0  0  0  1  0  0  0  0  0  0  0  0
    1.6421   -4.0072    3.4471 C   0  0  0  1  0  0  0  0  0  0  0  0
    2.7877   -4.9110    3.7481 C   0  0  0  1  0  0  0  0  0  0  0  0
   -9.0713   -0.8808    1.9952 H   0  0  0  1  0  0  0  0  0  0  0  0
   -9.2220   -0.4095   -4.4110 H   0  0  0  1  0  0  0  0  0  0  0  0
   -7.8989    0.7285   -4.3274 H   0  0  0  1  0  0  0  0  0  0  0  0
   -9.5201    1.2417   -3.9241 H   0  0  0  1  0  0  0  0  0  0  0  0
  -11.5596   -1.4960    2.6854 H   0  0  0  1  0  0  0  0  0  0  0  0
  -10.3410   -2.7444    2.5916 H   0  0  0  1  0  0  0  0  0  0  0  0
  -11.3946   -2.4473    1.2293 H   0  0  0  1  0  0  0  0  0  0  0  0
    1.7408    1.1449   -0.5544 H   0  0  0  1  0  0  0  0  0  0  0  0
   -9.7098    1.5944   -1.8215 H   0  0  0  1  0  0  0  0  0  0  0  0
   -7.8676    3.6481    0.9454 H   0  0  0  1  0  0  0  0  0  0  0  0
   -7.8054    2.9604   -0.6601 H   0  0  0  1  0  0  0  0  0  0  0  0
   -9.9185    2.4798    0.4079 H   0  0  0  1  0  0  0  0  0  0  0  0
   -9.0876    1.7083    1.7377 H   0  0  0  1  0  0  0  0  0  0  0  0
   -6.6765    1.1751    1.2822 H   0  0  0  1  0  0  0  0  0  0  0  0
   -5.8933    2.7371    1.3137 H   0  0  0  1  0  0  0  0  0  0  0  0
    1.6682    1.9033    2.8423 H   0  0  0  1  0  0  0  0  0  0  0  0
    3.0387    0.8402    2.6287 H   0  0  0  1  0  0  0  0  0  0  0  0
   -8.0982    0.1165    0.0986 H   0  0  0  1  0  0  0  0  0  0  0  0
   -6.3141    1.0442   -1.1324 H   0  0  0  1  0  0  0  0  0  0  0  0
   -5.5259    2.6036   -1.0973 H   0  0  0  1  0  0  0  0  0  0  0  0
   -2.9337   -2.6184    0.2088 H   0  0  0  1  0  0  0  0  0  0  0  0
   -2.1252   -1.9377    1.6007 H   0  0  0  1  0  0  0  0  0  0  0  0
    1.8732   -0.4552    1.0094 H   0  0  0  1  0  0  0  0  0  0  0  0
    1.8850   -0.9627    3.6582 H   0  0  0  1  0  0  0  0  0  0  0  0
    0.3955   -0.0496    3.7005 H   0  0  0  1  0  0  0  0  0  0  0  0
   -0.4973    1.8270    0.0954 H   0  0  0  1  0  0  0  0  0  0  0  0
    1.3966    1.5106    5.2578 H   0  0  0  1  0  0  0  0  0  0  0  0
    2.8855    0.5966    5.2160 H   0  0  0  1  0  0  0  0  0  0  0  0
   -0.4357   -0.3655    1.9859 H   0  0  0  1  0  0  0  0  0  0  0  0
    1.8356   -1.2574    6.3135 H   0  0  0  1  0  0  0  0  0  0  0  0
    0.2774   -0.4701    6.2344 H   0  0  0  1  0  0  0  0  0  0  0  0
   -0.9491   -1.5392   -1.1441 H   0  0  0  1  0  0  0  0  0  0  0  0
    0.9273   -2.5253   -0.3156 H   0  0  0  1  0  0  0  0  0  0  0  0
   -0.5020   -3.4714    2.0252 H   0  0  0  1  0  0  0  0  0  0  0  0
    0.2729   -1.9428    2.3670 H   0  0  0  1  0  0  0  0  0  0  0  0
    1.1769    1.3903    7.5891 H   0  0  0  1  0  0  0  0  0  0  0  0
    2.6994    0.5420    7.7108 H   0  0  0  1  0  0  0  0  0  0  0  0
    1.2618   -0.1334    8.4398 H   0  0  0  1  0  0  0  0  0  0  0  0
    2.4333   -2.8738    1.8213 H   0  0  0  1  0  0  0  0  0  0  0  0
    1.6932   -4.3844    1.3474 H   0  0  0  1  0  0  0  0  0  0  0  0
    0.7319   -4.5310    3.6525 H   0  0  0  1  0  0  0  0  0  0  0  0
    1.7105   -3.1479    4.0810 H   0  0  0  1  0  0  0  0  0  0  0  0
  1 34  1  0  0  0  0
  2  4  1  0  0  0  0
  3  4  1  0  0  0  0
  4  5  1  0  0  0  0
  4 32  1  0  0  0  0
  6 10  1  0  0  0  0
  6 26  1  0  0  0  0
  6 42  1  0  0  0  0
  7  8  1  0  0  0  0
  7  9  2  0  0  0  0
  7 13  1  0  0  0  0
  8 43  1  0  0  0  0
  8 44  1  0  0  0  0
  8 45  1  0  0  0  0
 10 46  1  0  0  0  0
 10 47  1  0  0  0  0
 10 48  1  0  0  0  0
 11 27  1  0  0  0  0
 11 49  1  0  0  0  0
 12 26  2  0  0  0  0
 13 23  1  0  0  0  0
 13 50  1  0  0  0  0
 14 41  1  0  0  0  0
 15 24  1  0  0  0  0
 15 32  4  0  0  0  0
 15 34  4  0  0  0  0
 16 41  2  0  0  0  0
 17 18  1  0  0  0  0
 17 20  1  0  0  0  0
 17 51  1  0  0  0  0
 17 52  1  0  0  0  0
 18 23  1  0  0  0  0
 18 53  1  0  0  0  0
 18 54  1  0  0  0  0
 19 21  4  0  0  0  0
 19 29  1  0  0  0  0
 19 32  4  0  0  0  0
 20 24  1  0  0  0  0
 20 55  1  0  0  0  0
 20 56  1  0  0  0  0
 21 25  1  0  0  0  0
 21 34  4  0  0  0  0
 22 27  1  0  0  0  0
 22 28  1  0  0  0  0
 22 57  1  0  0  0  0
 22 58  1  0  0  0  0
 23 26  1  0  0  0  0
 23 59  1  0  0  0  0
 24 60  1  0  0  0  0
 24 61  1  0  0  0  0
 25 35  1  0  0  0  0
 25 62  1  0  0  0  0
 25 63  1  0  0  0  0
 27 31  1  0  0  0  0
 27 64  1  0  0  0  0
 28 30  1  0  0  0  0
 28 65  1  0  0  0  0
 28 66  1  0  0  0  0
 29 31  2  0  0  0  0
 29 67  1  0  0  0  0
 30 33  1  0  0  0  0
 30 68  1  0  0  0  0
 30 69  1  0  0  0  0
 31 70  1  0  0  0  0
 33 38  1  0  0  0  0
 33 71  1  0  0  0  0
 33 72  1  0  0  0  0
 35 36  2  0  0  0  0
 35 73  1  0  0  0  0
 36 37  1  0  0  0  0
 36 74  1  0  0  0  0
 37 39  1  0  0  0  0
 37 75  1  0  0  0  0
 37 76  1  0  0  0  0
 38 77  1  0  0  0  0
 38 78  1  0  0  0  0
 38 79  1  0  0  0  0
 39 40  1  0  0  0  0
 39 80  1  0  0  0  0
 39 81  1  0  0  0  0
 40 41  1  0  0  0  0
 40 82  1  0  0  0  0
 40 83  1  0  0  0  0
M  END
> <ConfClashScore>
0 

> <ConfOneFourInteractionScore>
-0.992809 

> <ConfScore>
0.0854804 

> <ConfScorePBest>
0.00381805 

> <ConfTolerance>
2.10607 

$$$$
9548876
  PyMOL2.2          3D                             0

 83 83  0  0  0  0  0  0  0  0999 V2000
   -4.9986   -1.0574   -0.1333 H   0  0  0  1  0  0  0  0  0  0  0  0
   -2.1541    3.4143   -0.4466 H   0  0  0  1  0  0  0  0  0  0  0  0
   -3.3433    3.6401    0.8133 H   0  0  0  1  0  0  0  0  0  0  0  0
   -3.1536    3.1890   -0.1383 C   0  0  0  1  0  0  0  0  0  0  0  0
   -3.8442    3.5732   -0.8597 H   0  0  0  1  0  0  0  0  0  0  0  0
  -11.9968   -0.2271   -3.3203 N   0  0  0  1  0  0  0  0  0  0  0  0
  -11.3422    2.5020    0.0593 C   0  0  0  1  0  0  0  0  0  0  0  0
  -11.8632    2.8540    1.4391 C   0  0  0  1  0  0  0  0  0  0  0  0
  -11.0814    3.3685   -0.7590 O   0  0  0  1  0  0  0  0  0  0  0  0
  -11.4601    0.8187   -4.1782 C   0  0  0  1  0  0  0  0  0  0  0  0
    2.3103   -0.5550    0.9578 O   0  0  0  1  0  0  0  0  0  0  0  0
  -11.8804   -1.3725   -1.3978 O   0  0  0  1  0  0  0  0  0  0  0  0
  -11.1928    1.2000   -0.1889 N   0  0  0  1  0  0  0  0  0  0  0  0
    4.4698   -5.4405    2.4379 O   0  5  0  1  0  0  0  0  0  0  0  0
   -4.4880    1.0408   -0.2293 N   0  0  0  1  0  0  0  0  0  0  0  0
    5.1928   -3.5390    1.3983 O   0  0  0  1  0  0  0  0  0  0  0  0
   -8.2511    1.2012   -0.9664 C   0  0  0  1  0  0  0  0  0  0  0  0
   -9.2759    0.1522   -1.3700 C   0  0  0  1  0  0  0  0  0  0  0  0
   -2.3418    0.7790    0.2864 C   0  0  0  1  0  0  0  0  0  0  0  0
   -6.8514    0.6525   -0.8405 C   0  0  0  1  0  0  0  0  0  0  0  0
   -2.9508   -0.4844    0.2764 C   0  0  0  1  0  0  0  0  0  0  0  0
    2.1776    1.3977   -0.4096 C   0  0  0  1  0  0  0  0  0  0  0  0
  -10.7046    0.7032   -1.4667 C   0  0  0  1  0  0  0  0  0  0  0  0
   -5.7877    1.6619   -0.4860 C   0  0  0  1  0  0  0  0  0  0  0  0
   -2.2723   -1.8025    0.5659 C   0  0  0  1  0  0  0  0  0  0  0  0
  -11.6072   -0.3792   -2.0514 C   0  0  0  1  0  0  0  0  0  0  0  0
    1.5104    0.6067    0.6991 C   0  0  0  1  0  0  0  0  0  0  0  0
    3.5739    1.8520   -0.0632 C   0  0  0  1  0  0  0  0  0  0  0  0
   -0.9372    1.0493    0.5770 C   0  0  0  1  0  0  0  0  0  0  0  0
    4.3761    2.4308   -1.2128 C   0  0  0  1  0  0  0  0  0  0  0  0
    0.0888    0.2516    0.3990 C   0  0  0  1  0  0  0  0  0  0  0  0
   -3.3197    1.7123   -0.0295 C   0  0  0  1  0  0  0  0  0  0  0  0
    5.7498    2.9293   -0.7978 C   0  0  0  1  0  0  0  0  0  0  0  0
   -4.2824   -0.3083   -0.0456 C   0  0  0  1  0  0  0  0  0  0  0  0
   -1.4217   -1.7391    1.7643 C   0  0  0  1  0  0  0  0  0  0  0  0
   -0.1965   -2.1018    2.0508 C   0  0  0  1  0  0  0  0  0  0  0  0
    0.6845   -3.0101    1.2532 C   0  0  0  1  0  0  0  0  0  0  0  0
    6.5832    3.4386   -1.9624 C   0  0  0  1  0  0  0  0  0  0  0  0
    2.0466   -3.2416    1.9005 C   0  0  0  1  0  0  0  0  0  0  0  0
    2.9171   -4.2317    1.1378 C   0  0  0  1  0  0  0  0  0  0  0  0
    4.3031   -4.3260    1.6765 C   0  0  0  1  0  0  0  0  0  0  0  0
  -12.6672   -0.8412   -3.6860 H   0  0  0  1  0  0  0  0  0  0  0  0
  -12.9309    2.9180    1.4122 H   0  0  0  1  0  0  0  0  0  0  0  0
  -11.4573    3.7960    1.7437 H   0  0  0  1  0  0  0  0  0  0  0  0
  -11.5689    2.0965    2.1352 H   0  0  0  1  0  0  0  0  0  0  0  0
  -11.3978    0.4587   -5.1839 H   0  0  0  1  0  0  0  0  0  0  0  0
  -10.4839    1.0937   -3.8370 H   0  0  0  1  0  0  0  0  0  0  0  0
  -12.1039    1.6727   -4.1446 H   0  0  0  1  0  0  0  0  0  0  0  0
    3.0697   -0.3090    1.4911 H   0  0  0  1  0  0  0  0  0  0  0  0
  -11.4198    0.5555    0.5136 H   0  0  0  1  0  0  0  0  0  0  0  0
   -8.5405    1.6124   -0.0219 H   0  0  0  1  0  0  0  0  0  0  0  0
   -8.2473    1.9740   -1.7064 H   0  0  0  1  0  0  0  0  0  0  0  0
   -9.2632   -0.6321   -0.6422 H   0  0  0  1  0  0  0  0  0  0  0  0
   -8.9991   -0.2426   -2.3252 H   0  0  0  1  0  0  0  0  0  0  0  0
   -6.5858    0.2091   -1.7774 H   0  0  0  1  0  0  0  0  0  0  0  0
   -6.8593   -0.0991   -0.0791 H   0  0  0  1  0  0  0  0  0  0  0  0
    1.5812    2.2617   -0.6162 H   0  0  0  1  0  0  0  0  0  0  0  0
    2.2282    0.7814   -1.2828 H   0  0  0  1  0  0  0  0  0  0  0  0
  -10.6873    1.5173   -2.1609 H   0  0  0  1  0  0  0  0  0  0  0  0
   -5.6842    2.3506   -1.2984 H   0  0  0  1  0  0  0  0  0  0  0  0
   -6.0951    2.1896    0.3926 H   0  0  0  1  0  0  0  0  0  0  0  0
   -1.6650   -2.0688   -0.2738 H   0  0  0  1  0  0  0  0  0  0  0  0
   -3.0227   -2.5504    0.7155 H   0  0  0  1  0  0  0  0  0  0  0  0
    1.5104    1.2205    1.5756 H   0  0  0  1  0  0  0  0  0  0  0  0
    4.1092    1.0087    0.3205 H   0  0  0  1  0  0  0  0  0  0  0  0
    3.4975    2.6022    0.6959 H   0  0  0  1  0  0  0  0  0  0  0  0
   -0.7242    1.9871    0.9729 H   0  0  0  1  0  0  0  0  0  0  0  0
    3.8291    3.2508   -1.6292 H   0  0  0  1  0  0  0  0  0  0  0  0
    4.5011    1.6709   -1.9557 H   0  0  0  1  0  0  0  0  0  0  0  0
   -0.1004   -0.6986    0.0209 H   0  0  0  1  0  0  0  0  0  0  0  0
    6.2763    2.1234   -0.3307 H   0  0  0  1  0  0  0  0  0  0  0  0
    5.6234    3.7275   -0.0964 H   0  0  0  1  0  0  0  0  0  0  0  0
   -1.9075   -1.3039    2.5743 H   0  0  0  1  0  0  0  0  0  0  0  0
    0.2079   -1.7166    2.9282 H   0  0  0  1  0  0  0  0  0  0  0  0
    0.8359   -2.5756    0.2871 H   0  0  0  1  0  0  0  0  0  0  0  0
    0.1929   -3.9545    1.1470 H   0  0  0  1  0  0  0  0  0  0  0  0
    6.1288    4.3177   -2.3693 H   0  0  0  1  0  0  0  0  0  0  0  0
    6.6384    2.6834   -2.7184 H   0  0  0  1  0  0  0  0  0  0  0  0
    7.5692    3.6733   -1.6194 H   0  0  0  1  0  0  0  0  0  0  0  0
    1.8924   -3.6177    2.8902 H   0  0  0  1  0  0  0  0  0  0  0  0
    2.5620   -2.3052    1.9506 H   0  0  0  1  0  0  0  0  0  0  0  0
    2.9696   -3.9216    0.1151 H   0  0  0  1  0  0  0  0  0  0  0  0
    2.4630   -5.1989    1.1950 H   0  0  0  1  0  0  0  0  0  0  0  0
  1 34  1  0  0  0  0
  2  4  1  0  0  0  0
  3  4  1  0  0  0  0
  4  5  1  0  0  0  0
  4 32  1  0  0  0  0
  6 10  1  0  0  0  0
  6 26  1  0  0  0  0
  6 42  1  0  0  0  0
  7  8  1  0  0  0  0
  7  9  2  0  0  0  0
  7 13  1  0  0  0  0
  8 43  1  0  0  0  0
  8 44  1  0  0  0  0
  8 45  1  0  0  0  0
 10 46  1  0  0  0  0
 10 47  1  0  0  0  0
 10 48  1  0  0  0  0
 11 27  1  0  0  0  0
 11 49  1  0  0  0  0
 12 26  2  0  0  0  0
 13 23  1  0  0  0  0
 13 50  1  0  0  0  0
 14 41  1  0  0  0  0
 15 24  1  0  0  0  0
 15 32  4  0  0  0  0
 15 34  4  0  0  0  0
 16 41  2  0  0  0  0
 17 18  1  0  0  0  0
 17 20  1  0  0  0  0
 17 51  1  0  0  0  0
 17 52  1  0  0  0  0
 18 23  1  0  0  0  0
 18 53  1  0  0  0  0
 18 54  1  0  0  0  0
 19 21  4  0  0  0  0
 19 29  1  0  0  0  0
 19 32  4  0  0  0  0
 20 24  1  0  0  0  0
 20 55  1  0  0  0  0
 20 56  1  0  0  0  0
 21 25  1  0  0  0  0
 21 34  4  0  0  0  0
 22 27  1  0  0  0  0
 22 28  1  0  0  0  0
 22 57  1  0  0  0  0
 22 58  1  0  0  0  0
 23 26  1  0  0  0  0
 23 59  1  0  0  0  0
 24 60  1  0  0  0  0
 24 61  1  0  0  0  0
 25 35  1  0  0  0  0
 25 62  1  0  0  0  0
 25 63  1  0  0  0  0
 27 31  1  0  0  0  0
 27 64  1  0  0  0  0
 28 30  1  0  0  0  0
 28 65  1  0  0  0  0
 28 66  1  0  0  0  0
 29 31  2  0  0  0  0
 29 67  1  0  0  0  0
 30 33  1  0  0  0  0
 30 68  1  0  0  0  0
 30 69  1  0  0  0  0
 31 70  1  0  0  0  0
 33 38  1  0  0  0  0
 33 71  1  0  0  0  0
 33 72  1  0  0  0  0
 35 36  2  0  0  0  0
 35 73  1  0  0  0  0
 36 37  1  0  0  0  0
 36 74  1  0  0  0  0
 37 39  1  0  0  0  0
 37 75  1  0  0  0  0
 37 76  1  0  0  0  0
 38 77  1  0  0  0  0
 38 78  1  0  0  0  0
 38 79  1  0  0  0  0
 39 40  1  0  0  0  0
 39 80  1  0  0  0  0
 39 81  1  0  0  0  0
 40 41  1  0  0  0  0
 40 82  1  0  0  0  0
 40 83  1  0  0  0  0
M  END
> <ConfClashScore>
0 

> <ConfOneFourInteractionScore>
-0.992157 

> <ConfScore>
0.088546 

> <ConfScorePBest>
0.00378957 

> <ConfTolerance>
1.68683 

$$$$
9548876
  PyMOL2.2          3D                             0

 83 83  0  0  0  0  0  0  0  0999 V2000
   -5.0047   -1.0406   -0.1052 H   0  0  0  1  0  0  0  0  0  0  0  0
   -3.9849    3.6583    0.3810 H   0  0  0  1  0  0  0  0  0  0  0  0
   -3.2084    3.4667   -1.1723 H   0  0  0  1  0  0  0  0  0  0  0  0
   -3.1752    3.1905   -0.1391 C   0  0  0  1  0  0  0  0  0  0  0  0
   -2.2467    3.5096    0.2863 H   0  0  0  1  0  0  0  0  0  0  0  0
  -10.0475    4.7624   -2.5189 N   0  0  0  1  0  0  0  0  0  0  0  0
   -9.8624    4.7509   -5.9428 C   0  0  0  1  0  0  0  0  0  0  0  0
   -9.9815    5.0080   -7.4324 C   0  0  0  1  0  0  0  0  0  0  0  0
  -10.6845    5.2030   -5.1502 O   0  0  0  1  0  0  0  0  0  0  0  0
  -10.3517    5.7910   -1.5354 C   0  0  0  1  0  0  0  0  0  0  0  0
    2.0107    0.0585    2.2638 O   0  0  0  1  0  0  0  0  0  0  0  0
   -8.1066    5.6934   -3.1711 O   0  0  0  1  0  0  0  0  0  0  0  0
   -8.8170    4.0105   -5.5633 N   0  0  0  1  0  0  0  0  0  0  0  0
    1.2492   -4.9527   -3.3872 O   0  5  0  1  0  0  0  0  0  0  0  0
   -4.4724    1.0520   -0.2039 N   0  0  0  1  0  0  0  0  0  0  0  0
    0.4817   -3.4987   -4.9280 O   0  0  0  1  0  0  0  0  0  0  0  0
   -7.2601    2.4788   -2.4232 C   0  0  0  1  0  0  0  0  0  0  0  0
   -7.3585    2.8711   -3.8849 C   0  0  0  1  0  0  0  0  0  0  0  0
   -2.3233    0.7659    0.2860 C   0  0  0  1  0  0  0  0  0  0  0  0
   -5.8906    1.9442   -2.0333 C   0  0  0  1  0  0  0  0  0  0  0  0
   -2.9461   -0.4907    0.2812 C   0  0  0  1  0  0  0  0  0  0  0  0
    2.0637   -0.7751    0.0326 C   0  0  0  1  0  0  0  0  0  0  0  0
   -8.6772    3.5970   -4.1644 C   0  0  0  1  0  0  0  0  0  0  0  0
   -5.7470    1.6854   -0.5432 C   0  0  0  1  0  0  0  0  0  0  0  0
   -2.2768   -1.8205    0.5615 C   0  0  0  1  0  0  0  0  0  0  0  0
   -8.9371    4.7910   -3.2614 C   0  0  0  1  0  0  0  0  0  0  0  0
    1.4435    0.2587    0.9784 C   0  0  0  1  0  0  0  0  0  0  0  0
    2.1051   -2.1770    0.6165 C   0  0  0  1  0  0  0  0  0  0  0  0
   -0.9141    1.0200    0.5601 C   0  0  0  1  0  0  0  0  0  0  0  0
    1.7863   -3.2132   -0.4477 C   0  0  0  1  0  0  0  0  0  0  0  0
   -0.0470    0.1323    0.9783 C   0  0  0  1  0  0  0  0  0  0  0  0
   -3.2946    1.7104   -0.0168 C   0  0  0  1  0  0  0  0  0  0  0  0
    1.6762   -4.6245    0.1004 C   0  0  0  1  0  0  0  0  0  0  0  0
   -4.2795   -0.2996   -0.0248 C   0  0  0  1  0  0  0  0  0  0  0  0
   -3.0014   -2.9639   -0.0749 C   0  0  0  1  0  0  0  0  0  0  0  0
   -3.2593   -3.0678   -1.3545 C   0  0  0  1  0  0  0  0  0  0  0  0
   -2.7345   -2.1389   -2.4165 C   0  0  0  1  0  0  0  0  0  0  0  0
    1.3996   -5.7048   -0.9282 C   0  0  0  1  0  0  0  0  0  0  0  0
   -1.7473   -2.7009   -3.4092 C   0  0  0  1  0  0  0  0  0  0  0  0
   -0.4918   -3.3123   -2.8089 C   0  0  0  1  0  0  0  0  0  0  0  0
    0.4490   -3.9281   -3.7865 C   0  0  0  1  0  0  0  0  0  0  0  0
  -10.6791    4.0230   -2.6408 H   0  0  0  1  0  0  0  0  0  0  0  0
   -9.8603    6.0534   -7.6252 H   0  0  0  1  0  0  0  0  0  0  0  0
  -10.9456    4.6922   -7.7726 H   0  0  0  1  0  0  0  0  0  0  0  0
   -9.2227    4.4597   -7.9505 H   0  0  0  1  0  0  0  0  0  0  0  0
  -10.8276    6.6183   -2.0193 H   0  0  0  1  0  0  0  0  0  0  0  0
   -9.4450    6.1218   -1.0735 H   0  0  0  1  0  0  0  0  0  0  0  0
  -11.0062    5.3893   -0.7903 H   0  0  0  1  0  0  0  0  0  0  0  0
    1.5296    0.5792    2.9111 H   0  0  0  1  0  0  0  0  0  0  0  0
   -8.1423    3.7432   -6.2219 H   0  0  0  1  0  0  0  0  0  0  0  0
   -7.9890    1.7209   -2.2256 H   0  0  0  1  0  0  0  0  0  0  0  0
   -7.4704    3.3411   -1.8257 H   0  0  0  1  0  0  0  0  0  0  0  0
   -7.3086    1.9893   -4.4889 H   0  0  0  1  0  0  0  0  0  0  0  0
   -6.5427    3.5186   -4.1301 H   0  0  0  1  0  0  0  0  0  0  0  0
   -5.1511    2.6599   -2.3261 H   0  0  0  1  0  0  0  0  0  0  0  0
   -5.7242    1.0249   -2.5549 H   0  0  0  1  0  0  0  0  0  0  0  0
    3.0648   -0.4716   -0.1923 H   0  0  0  1  0  0  0  0  0  0  0  0
    1.4870   -0.7998   -0.8683 H   0  0  0  1  0  0  0  0  0  0  0  0
   -9.4568    2.8916   -3.9658 H   0  0  0  1  0  0  0  0  0  0  0  0
   -5.8147    2.6190   -0.0250 H   0  0  0  1  0  0  0  0  0  0  0  0
   -6.5433    1.0436   -0.2285 H   0  0  0  1  0  0  0  0  0  0  0  0
   -2.2499   -1.9762    1.6197 H   0  0  0  1  0  0  0  0  0  0  0  0
   -1.2778   -1.7905    0.1793 H   0  0  0  1  0  0  0  0  0  0  0  0
    1.6988    1.2341    0.6200 H   0  0  0  1  0  0  0  0  0  0  0  0
    1.3850   -2.2503    1.4045 H   0  0  0  1  0  0  0  0  0  0  0  0
    3.0831   -2.3654    1.0077 H   0  0  0  1  0  0  0  0  0  0  0  0
   -0.5679    1.9892    0.4108 H   0  0  0  1  0  0  0  0  0  0  0  0
    2.5633   -3.1945   -1.1831 H   0  0  0  1  0  0  0  0  0  0  0  0
    0.8548   -2.9536   -0.9057 H   0  0  0  1  0  0  0  0  0  0  0  0
   -0.4368   -0.7570    1.3508 H   0  0  0  1  0  0  0  0  0  0  0  0
    0.8807   -4.6392    0.8158 H   0  0  0  1  0  0  0  0  0  0  0  0
    2.5990   -4.8618    0.5874 H   0  0  0  1  0  0  0  0  0  0  0  0
   -3.3246   -3.7338    0.5452 H   0  0  0  1  0  0  0  0  0  0  0  0
   -3.8723   -3.8504   -1.6599 H   0  0  0  1  0  0  0  0  0  0  0  0
   -2.2574   -1.3206   -1.9188 H   0  0  0  1  0  0  0  0  0  0  0  0
   -3.5758   -1.7784   -2.9707 H   0  0  0  1  0  0  0  0  0  0  0  0
    2.1176   -5.6377   -1.7186 H   0  0  0  1  0  0  0  0  0  0  0  0
    0.4159   -5.5726   -1.3281 H   0  0  0  1  0  0  0  0  0  0  0  0
    1.4699   -6.6659   -0.4633 H   0  0  0  1  0  0  0  0  0  0  0  0
   -1.4479   -1.9074   -4.0616 H   0  0  0  1  0  0  0  0  0  0  0  0
   -2.2453   -3.4601   -3.9754 H   0  0  0  1  0  0  0  0  0  0  0  0
   -0.7925   -4.0713   -2.1172 H   0  0  0  1  0  0  0  0  0  0  0  0
    0.0337   -2.5406   -2.2862 H   0  0  0  1  0  0  0  0  0  0  0  0
  1 34  1  0  0  0  0
  2  4  1  0  0  0  0
  3  4  1  0  0  0  0
  4  5  1  0  0  0  0
  4 32  1  0  0  0  0
  6 10  1  0  0  0  0
  6 26  1  0  0  0  0
  6 42  1  0  0  0  0
  7  8  1  0  0  0  0
  7  9  2  0  0  0  0
  7 13  1  0  0  0  0
  8 43  1  0  0  0  0
  8 44  1  0  0  0  0
  8 45  1  0  0  0  0
 10 46  1  0  0  0  0
 10 47  1  0  0  0  0
 10 48  1  0  0  0  0
 11 27  1  0  0  0  0
 11 49  1  0  0  0  0
 12 26  2  0  0  0  0
 13 23  1  0  0  0  0
 13 50  1  0  0  0  0
 14 41  1  0  0  0  0
 15 24  1  0  0  0  0
 15 32  4  0  0  0  0
 15 34  4  0  0  0  0
 16 41  2  0  0  0  0
 17 18  1  0  0  0  0
 17 20  1  0  0  0  0
 17 51  1  0  0  0  0
 17 52  1  0  0  0  0
 18 23  1  0  0  0  0
 18 53  1  0  0  0  0
 18 54  1  0  0  0  0
 19 21  4  0  0  0  0
 19 29  1  0  0  0  0
 19 32  4  0  0  0  0
 20 24  1  0  0  0  0
 20 55  1  0  0  0  0
 20 56  1  0  0  0  0
 21 25  1  0  0  0  0
 21 34  4  0  0  0  0
 22 27  1  0  0  0  0
 22 28  1  0  0  0  0
 22 57  1  0  0  0  0
 22 58  1  0  0  0  0
 23 26  1  0  0  0  0
 23 59  1  0  0  0  0
 24 60  1  0  0  0  0
 24 61  1  0  0  0  0
 25 35  1  0  0  0  0
 25 62  1  0  0  0  0
 25 63  1  0  0  0  0
 27 31  1  0  0  0  0
 27 64  1  0  0  0  0
 28 30  1  0  0  0  0
 28 65  1  0  0  0  0
 28 66  1  0  0  0  0
 29 31  2  0  0  0  0
 29 67  1  0  0  0  0
 30 33  1  0  0  0  0
 30 68  1  0  0  0  0
 30 69  1  0  0  0  0
 31 70  1  0  0  0  0
 33 38  1  0  0  0  0
 33 71  1  0  0  0  0
 33 72  1  0  0  0  0
 35 36  2  0  0  0  0
 35 73  1  0  0  0  0
 36 37  1  0  0  0  0
 36 74  1  0  0  0  0
 37 39  1  0  0  0  0
 37 75  1  0  0  0  0
 37 76  1  0  0  0  0
 38 77  1  0  0  0  0
 38 78  1  0  0  0  0
 38 79  1  0  0  0  0
 39 40  1  0  0  0  0
 39 80  1  0  0  0  0
 39 81  1  0  0  0  0
 40 41  1  0  0  0  0
 40 82  1  0  0  0  0
 40 83  1  0  0  0  0
M  END
> <ConfClashScore>
0.000535371 

> <ConfOneFourInteractionScore>
-0.986312 

> <ConfScore>
0.0888731 

> <ConfScorePBest>
0.00376109 

> <ConfTolerance>
2.10238 

$$$$
9548876
  PyMOL2.2          3D                             0

 83 83  0  0  0  0  0  0  0  0999 V2000
   -5.0036   -1.0355   -0.1292 H   0  0  0  1  0  0  0  0  0  0  0  0
   -4.1523    3.6112    0.0270 H   0  0  0  1  0  0  0  0  0  0  0  0
   -2.8636    3.4340   -1.1393 H   0  0  0  1  0  0  0  0  0  0  0  0
   -3.1884    3.1823   -0.1514 C   0  0  0  1  0  0  0  0  0  0  0  0
   -2.4899    3.5659    0.5627 H   0  0  0  1  0  0  0  0  0  0  0  0
   -4.6660    1.3610   -7.3740 N   0  0  0  1  0  0  0  0  0  0  0  0
   -3.2923    0.3042   -4.2813 C   0  0  0  1  0  0  0  0  0  0  0  0
   -1.8295   -0.0934   -4.2443 C   0  0  0  1  0  0  0  0  0  0  0  0
   -4.1528   -0.4070   -3.7643 O   0  0  0  1  0  0  0  0  0  0  0  0
   -4.9240    1.4556   -8.8031 C   0  0  0  1  0  0  0  0  0  0  0  0
    1.7431    1.5949    0.6265 O   0  0  0  1  0  0  0  0  0  0  0  0
   -6.2430    2.8437   -6.7944 O   0  0  0  1  0  0  0  0  0  0  0  0
   -3.6187    1.4533   -4.8939 N   0  0  0  1  0  0  0  0  0  0  0  0
    1.6365   -8.6308    1.6378 O   0  5  0  1  0  0  0  0  0  0  0  0
   -4.4518    1.0525   -0.2212 N   0  0  0  1  0  0  0  0  0  0  0  0
    1.4347   -8.1297   -0.5719 O   0  0  0  1  0  0  0  0  0  0  0  0
   -4.9978    2.8284   -2.6608 C   0  0  0  1  0  0  0  0  0  0  0  0
   -5.3173    3.0609   -4.1168 C   0  0  0  1  0  0  0  0  0  0  0  0
   -2.3121    0.7478    0.2977 C   0  0  0  1  0  0  0  0  0  0  0  0
   -5.9933    1.9155   -1.9638 C   0  0  0  1  0  0  0  0  0  0  0  0
   -2.9457   -0.5034    0.2848 C   0  0  0  1  0  0  0  0  0  0  0  0
    1.0797    3.8953    0.2785 C   0  0  0  1  0  0  0  0  0  0  0  0
   -5.0140    1.8511   -5.0056 C   0  0  0  1  0  0  0  0  0  0  0  0
   -5.7157    1.7430   -0.4793 C   0  0  0  1  0  0  0  0  0  0  0  0
   -2.2938   -1.8349    0.5735 C   0  0  0  1  0  0  0  0  0  0  0  0
   -5.3418    2.0850   -6.4773 C   0  0  0  1  0  0  0  0  0  0  0  0
    0.9140    2.6212    1.1239 C   0  0  0  1  0  0  0  0  0  0  0  0
    0.0422    4.9615    0.5863 C   0  0  0  1  0  0  0  0  0  0  0  0
   -0.9130    1.0445    0.5831 C   0  0  0  1  0  0  0  0  0  0  0  0
    0.2636    6.2338   -0.1580 C   0  0  0  1  0  0  0  0  0  0  0  0
   -0.5174    2.1971    1.0795 C   0  0  0  1  0  0  0  0  0  0  0  0
   -3.2709    1.7006   -0.0184 C   0  0  0  1  0  0  0  0  0  0  0  0
    0.0241    6.2246   -1.6475 C   0  0  0  1  0  0  0  0  0  0  0  0
   -4.2731   -0.3007   -0.0392 C   0  0  0  1  0  0  0  0  0  0  0  0
   -1.4796   -2.3818   -0.5469 C   0  0  0  1  0  0  0  0  0  0  0  0
   -0.5880   -3.3173   -0.6036 C   0  0  0  1  0  0  0  0  0  0  0  0
   -0.0562   -4.2030    0.4913 C   0  0  0  1  0  0  0  0  0  0  0  0
    0.5751    7.4524   -2.3540 C   0  0  0  1  0  0  0  0  0  0  0  0
    0.4281   -5.5514   -0.0162 C   0  0  0  1  0  0  0  0  0  0  0  0
    1.0436   -6.4184    1.0701 C   0  0  0  1  0  0  0  0  0  0  0  0
    1.3845   -7.7902    0.5988 C   0  0  0  1  0  0  0  0  0  0  0  0
   -3.9723    0.7448   -7.0584 H   0  0  0  1  0  0  0  0  0  0  0  0
   -1.5016   -0.3408   -5.2323 H   0  0  0  1  0  0  0  0  0  0  0  0
   -1.7071   -0.9427   -3.6051 H   0  0  0  1  0  0  0  0  0  0  0  0
   -1.2477    0.7226   -3.8695 H   0  0  0  1  0  0  0  0  0  0  0  0
   -4.2315    2.1401   -9.2466 H   0  0  0  1  0  0  0  0  0  0  0  0
   -5.9226    1.8054   -8.9626 H   0  0  0  1  0  0  0  0  0  0  0  0
   -4.8078    0.4908   -9.2509 H   0  0  0  1  0  0  0  0  0  0  0  0
    2.6576    1.8866    0.6405 H   0  0  0  1  0  0  0  0  0  0  0  0
   -2.9157    2.0254   -5.2667 H   0  0  0  1  0  0  0  0  0  0  0  0
   -4.9951    3.7735   -2.1590 H   0  0  0  1  0  0  0  0  0  0  0  0
   -4.0262    2.3854   -2.5933 H   0  0  0  1  0  0  0  0  0  0  0  0
   -4.7369    3.8904   -4.4632 H   0  0  0  1  0  0  0  0  0  0  0  0
   -6.3583    3.2927   -4.2028 H   0  0  0  1  0  0  0  0  0  0  0  0
   -5.9553    0.9532   -2.4301 H   0  0  0  1  0  0  0  0  0  0  0  0
   -6.9728    2.3302   -2.0798 H   0  0  0  1  0  0  0  0  0  0  0  0
    0.9971    3.6299   -0.7548 H   0  0  0  1  0  0  0  0  0  0  0  0
    2.0510    4.3030    0.4660 H   0  0  0  1  0  0  0  0  0  0  0  0
   -5.6245    1.0412   -4.6644 H   0  0  0  1  0  0  0  0  0  0  0  0
   -5.6775    2.7101   -0.0230 H   0  0  0  1  0  0  0  0  0  0  0  0
   -6.5118    1.1746   -0.0455 H   0  0  0  1  0  0  0  0  0  0  0  0
   -3.0644   -2.5413    0.8018 H   0  0  0  1  0  0  0  0  0  0  0  0
   -1.6547   -1.7163    1.4235 H   0  0  0  1  0  0  0  0  0  0  0  0
    1.1736    2.8493    2.1366 H   0  0  0  1  0  0  0  0  0  0  0  0
    0.0730    5.1721    1.6349 H   0  0  0  1  0  0  0  0  0  0  0  0
   -0.9234    4.5803    0.3267 H   0  0  0  1  0  0  0  0  0  0  0  0
   -0.1984    0.3149    0.3863 H   0  0  0  1  0  0  0  0  0  0  0  0
    1.2813    6.5238    0.0002 H   0  0  0  1  0  0  0  0  0  0  0  0
   -0.3874    6.9696    0.2659 H   0  0  0  1  0  0  0  0  0  0  0  0
   -1.2369    2.8448    1.4596 H   0  0  0  1  0  0  0  0  0  0  0  0
   -1.0307    6.1781   -1.8212 H   0  0  0  1  0  0  0  0  0  0  0  0
    0.4928    5.3563   -2.0611 H   0  0  0  1  0  0  0  0  0  0  0  0
   -1.6635   -1.9223   -1.4616 H   0  0  0  1  0  0  0  0  0  0  0  0
   -0.1778   -3.4819   -1.5450 H   0  0  0  1  0  0  0  0  0  0  0  0
   -0.8362   -4.3679    1.2050 H   0  0  0  1  0  0  0  0  0  0  0  0
    0.7625   -3.7037    0.9659 H   0  0  0  1  0  0  0  0  0  0  0  0
    0.3353    7.4029   -3.3956 H   0  0  0  1  0  0  0  0  0  0  0  0
    1.6379    7.4856   -2.2342 H   0  0  0  1  0  0  0  0  0  0  0  0
    0.1402    8.3331   -1.9296 H   0  0  0  1  0  0  0  0  0  0  0  0
    1.1643   -5.3841   -0.7744 H   0  0  0  1  0  0  0  0  0  0  0  0
   -0.4050   -6.0749   -0.4365 H   0  0  0  1  0  0  0  0  0  0  0  0
    0.3461   -6.4992    1.8774 H   0  0  0  1  0  0  0  0  0  0  0  0
    1.9384   -5.9453    1.4172 H   0  0  0  1  0  0  0  0  0  0  0  0
  1 34  1  0  0  0  0
  2  4  1  0  0  0  0
  3  4  1  0  0  0  0
  4  5  1  0  0  0  0
  4 32  1  0  0  0  0
  6 10  1  0  0  0  0
  6 26  1  0  0  0  0
  6 42  1  0  0  0  0
  7  8  1  0  0  0  0
  7  9  2  0  0  0  0
  7 13  1  0  0  0  0
  8 43  1  0  0  0  0
  8 44  1  0  0  0  0
  8 45  1  0  0  0  0
 10 46  1  0  0  0  0
 10 47  1  0  0  0  0
 10 48  1  0  0  0  0
 11 27  1  0  0  0  0
 11 49  1  0  0  0  0
 12 26  2  0  0  0  0
 13 23  1  0  0  0  0
 13 50  1  0  0  0  0
 14 41  1  0  0  0  0
 15 24  1  0  0  0  0
 15 32  4  0  0  0  0
 15 34  4  0  0  0  0
 16 41  2  0  0  0  0
 17 18  1  0  0  0  0
 17 20  1  0  0  0  0
 17 51  1  0  0  0  0
 17 52  1  0  0  0  0
 18 23  1  0  0  0  0
 18 53  1  0  0  0  0
 18 54  1  0  0  0  0
 19 21  4  0  0  0  0
 19 29  1  0  0  0  0
 19 32  4  0  0  0  0
 20 24  1  0  0  0  0
 20 55  1  0  0  0  0
 20 56  1  0  0  0  0
 21 25  1  0  0  0  0
 21 34  4  0  0  0  0
 22 27  1  0  0  0  0
 22 28  1  0  0  0  0
 22 57  1  0  0  0  0
 22 58  1  0  0  0  0
 23 26  1  0  0  0  0
 23 59  1  0  0  0  0
 24 60  1  0  0  0  0
 24 61  1  0  0  0  0
 25 35  1  0  0  0  0
 25 62  1  0  0  0  0
 25 63  1  0  0  0  0
 27 31  1  0  0  0  0
 27 64  1  0  0  0  0
 28 30  1  0  0  0  0
 28 65  1  0  0  0  0
 28 66  1  0  0  0  0
 29 31  2  0  0  0  0
 29 67  1  0  0  0  0
 30 33  1  0  0  0  0
 30 68  1  0  0  0  0
 30 69  1  0  0  0  0
 31 70  1  0  0  0  0
 33 38  1  0  0  0  0
 33 71  1  0  0  0  0
 33 72  1  0  0  0  0
 35 36  2  0  0  0  0
 35 73  1  0  0  0  0
 36 37  1  0  0  0  0
 36 74  1  0  0  0  0
 37 39  1  0  0  0  0
 37 75  1  0  0  0  0
 37 76  1  0  0  0  0
 38 77  1  0  0  0  0
 38 78  1  0  0  0  0
 38 79  1  0  0  0  0
 39 40  1  0  0  0  0
 39 80  1  0  0  0  0
 39 81  1  0  0  0  0
 40 41  1  0  0  0  0
 40 82  1  0  0  0  0
 40 83  1  0  0  0  0
M  END
> <ConfClashScore>
0 

> <ConfOneFourInteractionScore>
-0.981924 

> <ConfScore>
0.0911396 

> <ConfScorePBest>
0.00373261 

> <ConfTolerance>
2.14834 

$$$$
9548876
  PyMOL2.2          3D                             0

 83 83  0  0  0  0  0  0  0  0999 V2000
   -5.0039   -1.0221   -0.1436 H   0  0  0  1  0  0  0  0  0  0  0  0
   -3.8469    3.6786    0.5280 H   0  0  0  1  0  0  0  0  0  0  0  0
   -3.4555    3.4330   -1.1569 H   0  0  0  1  0  0  0  0  0  0  0  0
   -3.1827    3.1871   -0.1519 C   0  0  0  1  0  0  0  0  0  0  0  0
   -2.1794    3.5087    0.0347 H   0  0  0  1  0  0  0  0  0  0  0  0
  -10.9927    2.0350   -1.1971 N   0  0  0  1  0  0  0  0  0  0  0  0
  -12.2201    3.8961    2.2338 C   0  0  0  1  0  0  0  0  0  0  0  0
  -13.0972    3.8433    3.4696 C   0  0  0  1  0  0  0  0  0  0  0  0
  -12.4146    4.7185    1.3397 O   0  0  0  1  0  0  0  0  0  0  0  0
  -11.4867    1.0579   -2.1558 C   0  0  0  1  0  0  0  0  0  0  0  0
    2.2920   -0.4803   -0.0867 O   0  0  0  1  0  0  0  0  0  0  0  0
  -11.2149    0.6213    0.5272 O   0  0  0  1  0  0  0  0  0  0  0  0
  -11.2423    2.9764    2.2266 N   0  0  0  1  0  0  0  0  0  0  0  0
    2.8782   -6.8338    3.7071 O   0  5  0  1  0  0  0  0  0  0  0  0
   -4.4564    1.0688   -0.1737 N   0  0  0  1  0  0  0  0  0  0  0  0
    1.5491   -5.9357    5.2799 O   0  0  0  1  0  0  0  0  0  0  0  0
   -8.0420    2.2751    0.2943 C   0  0  0  1  0  0  0  0  0  0  0  0
   -8.9653    2.5147    1.4631 C   0  0  0  1  0  0  0  0  0  0  0  0
   -2.3125    0.7522    0.3199 C   0  0  0  1  0  0  0  0  0  0  0  0
   -6.6639    1.7835    0.7060 C   0  0  0  1  0  0  0  0  0  0  0  0
   -2.9439   -0.4992    0.2721 C   0  0  0  1  0  0  0  0  0  0  0  0
    1.7213    1.6170   -1.1564 C   0  0  0  1  0  0  0  0  0  0  0  0
  -10.4078    2.8064    1.0465 C   0  0  0  1  0  0  0  0  0  0  0  0
   -5.7488    1.6712   -0.5024 C   0  0  0  1  0  0  0  0  0  0  0  0
   -2.2876   -1.8379    0.5140 C   0  0  0  1  0  0  0  0  0  0  0  0
  -10.9378    1.7310    0.1027 C   0  0  0  1  0  0  0  0  0  0  0  0
    1.4904    0.6777    0.0394 C   0  0  0  1  0  0  0  0  0  0  0  0
    0.4789    2.3932   -1.5616 C   0  0  0  1  0  0  0  0  0  0  0  0
   -0.9069    1.0435    0.6054 C   0  0  0  1  0  0  0  0  0  0  0  0
    0.7918    3.3581   -2.6936 C   0  0  0  1  0  0  0  0  0  0  0  0
    0.0430    0.3033    0.0855 C   0  0  0  1  0  0  0  0  0  0  0  0
   -3.2752    1.7126    0.0409 C   0  0  0  1  0  0  0  0  0  0  0  0
   -0.4010    4.1994   -3.1149 C   0  0  0  1  0  0  0  0  0  0  0  0
   -4.2740   -0.2891   -0.0357 C   0  0  0  1  0  0  0  0  0  0  0  0
   -2.7235   -2.4570    1.8039 C   0  0  0  1  0  0  0  0  0  0  0  0
   -1.9437   -3.1293    2.6130 C   0  0  0  1  0  0  0  0  0  0  0  0
   -0.4945   -3.4746    2.3973 C   0  0  0  1  0  0  0  0  0  0  0  0
   -0.0379    5.1024   -4.2786 C   0  0  0  1  0  0  0  0  0  0  0  0
    0.1560   -4.2799    3.5102 C   0  0  0  1  0  0  0  0  0  0  0  0
    1.1364   -5.3252    3.0037 C   0  0  0  1  0  0  0  0  0  0  0  0
    1.8478   -6.0386    4.1015 C   0  0  0  1  0  0  0  0  0  0  0  0
  -10.6997    2.9178   -1.5056 H   0  0  0  1  0  0  0  0  0  0  0  0
  -14.0212    4.3460    3.2735 H   0  0  0  1  0  0  0  0  0  0  0  0
  -12.5957    4.3239    4.2834 H   0  0  0  1  0  0  0  0  0  0  0  0
  -13.2938    2.8227    3.7238 H   0  0  0  1  0  0  0  0  0  0  0  0
  -10.6689    0.4755   -2.5258 H   0  0  0  1  0  0  0  0  0  0  0  0
  -11.9599    1.5655   -2.9703 H   0  0  0  1  0  0  0  0  0  0  0  0
  -12.1944    0.4144   -1.6764 H   0  0  0  1  0  0  0  0  0  0  0  0
    1.7857   -1.2511    0.1798 H   0  0  0  1  0  0  0  0  0  0  0  0
  -11.0900    2.4183    3.0176 H   0  0  0  1  0  0  0  0  0  0  0  0
   -7.9282    3.1939   -0.2421 H   0  0  0  1  0  0  0  0  0  0  0  0
   -8.4871    1.5413   -0.3447 H   0  0  0  1  0  0  0  0  0  0  0  0
   -8.5974    3.3509    2.0201 H   0  0  0  1  0  0  0  0  0  0  0  0
   -8.9610    1.6427    2.0832 H   0  0  0  1  0  0  0  0  0  0  0  0
   -6.7573    0.8219    1.1659 H   0  0  0  1  0  0  0  0  0  0  0  0
   -6.2394    2.4738    1.4046 H   0  0  0  1  0  0  0  0  0  0  0  0
    2.0422    1.0302   -1.9916 H   0  0  0  1  0  0  0  0  0  0  0  0
    2.4881    2.3162   -0.8954 H   0  0  0  1  0  0  0  0  0  0  0  0
  -10.4018    3.7298    0.5059 H   0  0  0  1  0  0  0  0  0  0  0  0
   -6.2305    1.0667   -1.2423 H   0  0  0  1  0  0  0  0  0  0  0  0
   -5.5798    2.6514   -0.8968 H   0  0  0  1  0  0  0  0  0  0  0  0
   -1.2266   -1.7017    0.5386 H   0  0  0  1  0  0  0  0  0  0  0  0
   -2.5445   -2.4973   -0.2886 H   0  0  0  1  0  0  0  0  0  0  0  0
    1.7385    1.2034    0.9378 H   0  0  0  1  0  0  0  0  0  0  0  0
    0.1200    2.9459   -0.7186 H   0  0  0  1  0  0  0  0  0  0  0  0
   -0.2745    1.7056   -1.8848 H   0  0  0  1  0  0  0  0  0  0  0  0
   -0.6599    1.8420    1.2242 H   0  0  0  1  0  0  0  0  0  0  0  0
    1.1238    2.7928   -3.5392 H   0  0  0  1  0  0  0  0  0  0  0  0
    1.5738    4.0145   -2.3735 H   0  0  0  1  0  0  0  0  0  0  0  0
   -0.2307   -0.6121   -0.3253 H   0  0  0  1  0  0  0  0  0  0  0  0
   -0.7150    4.8017   -2.2881 H   0  0  0  1  0  0  0  0  0  0  0  0
   -1.2005    3.5521   -3.4092 H   0  0  0  1  0  0  0  0  0  0  0  0
   -3.7203   -2.3452    2.0787 H   0  0  0  1  0  0  0  0  0  0  0  0
   -2.3720   -3.4605    3.5009 H   0  0  0  1  0  0  0  0  0  0  0  0
    0.0504   -2.5600    2.2899 H   0  0  0  1  0  0  0  0  0  0  0  0
   -0.4214   -4.0421    1.4932 H   0  0  0  1  0  0  0  0  0  0  0  0
    0.5215    4.5461   -5.0014 H   0  0  0  1  0  0  0  0  0  0  0  0
    0.5529    5.9209   -3.9237 H   0  0  0  1  0  0  0  0  0  0  0  0
   -0.9320    5.4771   -4.7314 H   0  0  0  1  0  0  0  0  0  0  0  0
   -0.6133   -4.7764    4.0639 H   0  0  0  1  0  0  0  0  0  0  0  0
    0.6813   -3.6059    4.1542 H   0  0  0  1  0  0  0  0  0  0  0  0
    1.8629   -4.8398    2.3861 H   0  0  0  1  0  0  0  0  0  0  0  0
    0.5975   -6.0446    2.4232 H   0  0  0  1  0  0  0  0  0  0  0  0
  1 34  1  0  0  0  0
  2  4  1  0  0  0  0
  3  4  1  0  0  0  0
  4  5  1  0  0  0  0
  4 32  1  0  0  0  0
  6 10  1  0  0  0  0
  6 26  1  0  0  0  0
  6 42  1  0  0  0  0
  7  8  1  0  0  0  0
  7  9  2  0  0  0  0
  7 13  1  0  0  0  0
  8 43  1  0  0  0  0
  8 44  1  0  0  0  0
  8 45  1  0  0  0  0
 10 46  1  0  0  0  0
 10 47  1  0  0  0  0
 10 48  1  0  0  0  0
 11 27  1  0  0  0  0
 11 49  1  0  0  0  0
 12 26  2  0  0  0  0
 13 23  1  0  0  0  0
 13 50  1  0  0  0  0
 14 41  1  0  0  0  0
 15 24  1  0  0  0  0
 15 32  4  0  0  0  0
 15 34  4  0  0  0  0
 16 41  2  0  0  0  0
 17 18  1  0  0  0  0
 17 20  1  0  0  0  0
 17 51  1  0  0  0  0
 17 52  1  0  0  0  0
 18 23  1  0  0  0  0
 18 53  1  0  0  0  0
 18 54  1  0  0  0  0
 19 21  4  0  0  0  0
 19 29  1  0  0  0  0
 19 32  4  0  0  0  0
 20 24  1  0  0  0  0
 20 55  1  0  0  0  0
 20 56  1  0  0  0  0
 21 25  1  0  0  0  0
 21 34  4  0  0  0  0
 22 27  1  0  0  0  0
 22 28  1  0  0  0  0
 22 57  1  0  0  0  0
 22 58  1  0  0  0  0
 23 26  1  0  0  0  0
 23 59  1  0  0  0  0
 24 60  1  0  0  0  0
 24 61  1  0  0  0  0
 25 35  1  0  0  0  0
 25 62  1  0  0  0  0
 25 63  1  0  0  0  0
 27 31  1  0  0  0  0
 27 64  1  0  0  0  0
 28 30  1  0  0  0  0
 28 65  1  0  0  0  0
 28 66  1  0  0  0  0
 29 31  2  0  0  0  0
 29 67  1  0  0  0  0
 30 33  1  0  0  0  0
 30 68  1  0  0  0  0
 30 69  1  0  0  0  0
 31 70  1  0  0  0  0
 33 38  1  0  0  0  0
 33 71  1  0  0  0  0
 33 72  1  0  0  0  0
 35 36  2  0  0  0  0
 35 73  1  0  0  0  0
 36 37  1  0  0  0  0
 36 74  1  0  0  0  0
 37 39  1  0  0  0  0
 37 75  1  0  0  0  0
 37 76  1  0  0  0  0
 38 77  1  0  0  0  0
 38 78  1  0  0  0  0
 38 79  1  0  0  0  0
 39 40  1  0  0  0  0
 39 80  1  0  0  0  0
 39 81  1  0  0  0  0
 40 41  1  0  0  0  0
 40 82  1  0  0  0  0
 40 83  1  0  0  0  0
M  END
> <ConfClashScore>
0 

> <ConfOneFourInteractionScore>
-0.986808 

> <ConfScore>
0.0913896 

> <ConfScorePBest>
0.00370413 

> <ConfTolerance>
1.98991 

$$$$
9548876
  PyMOL2.2          3D                             0

 83 83  0  0  0  0  0  0  0  0999 V2000
   -5.0112   -1.0432   -0.0794 H   0  0  0  1  0  0  0  0  0  0  0  0
   -3.6227    3.5063   -1.0519 H   0  0  0  1  0  0  0  0  0  0  0  0
   -2.1465    3.4642   -0.1182 H   0  0  0  1  0  0  0  0  0  0  0  0
   -3.1800    3.1871   -0.1315 C   0  0  0  1  0  0  0  0  0  0  0  0
   -3.6855    3.6538    0.6879 H   0  0  0  1  0  0  0  0  0  0  0  0
   -7.0940    6.7700   -2.7832 N   0  0  0  1  0  0  0  0  0  0  0  0
  -10.0042    5.4916   -2.4075 C   0  0  0  1  0  0  0  0  0  0  0  0
  -10.8505    4.8227   -3.4539 C   0  0  0  1  0  0  0  0  0  0  0  0
  -10.2635    6.5999   -1.9684 O   0  0  0  1  0  0  0  0  0  0  0  0
   -6.4992    7.9586   -3.3759 C   0  0  0  1  0  0  0  0  0  0  0  0
    1.8171    1.1579   -0.2514 O   0  0  0  1  0  0  0  0  0  0  0  0
   -7.2026    7.7048   -0.7496 O   0  0  0  1  0  0  0  0  0  0  0  0
   -8.9236    4.8513   -1.9357 N   0  0  0  1  0  0  0  0  0  0  0  0
   -4.3459   -4.2477    5.4004 O   0  5  0  1  0  0  0  0  0  0  0  0
   -4.4790    1.0493   -0.1824 N   0  0  0  1  0  0  0  0  0  0  0  0
   -3.5355   -2.3132    4.5622 O   0  0  0  1  0  0  0  0  0  0  0  0
   -7.6194    3.2135    0.1575 C   0  0  0  1  0  0  0  0  0  0  0  0
   -7.0458    4.4874   -0.4118 C   0  0  0  1  0  0  0  0  0  0  0  0
   -2.3239    0.7614    0.2795 C   0  0  0  1  0  0  0  0  0  0  0  0
   -6.5097    2.2605    0.5706 C   0  0  0  1  0  0  0  0  0  0  0  0
   -2.9475   -0.4949    0.2812 C   0  0  0  1  0  0  0  0  0  0  0  0
    1.9693    0.9089    2.1603 C   0  0  0  1  0  0  0  0  0  0  0  0
   -8.0704    5.4902   -0.9448 C   0  0  0  1  0  0  0  0  0  0  0  0
   -5.7060    1.7261   -0.6037 C   0  0  0  1  0  0  0  0  0  0  0  0
   -2.2773   -1.8215    0.5504 C   0  0  0  1  0  0  0  0  0  0  0  0
   -7.3874    6.7453   -1.4800 C   0  0  0  1  0  0  0  0  0  0  0  0
    1.4494    0.3420    0.8382 C   0  0  0  1  0  0  0  0  0  0  0  0
    3.4605    1.2028    2.1451 C   0  0  0  1  0  0  0  0  0  0  0  0
   -0.9112    1.0144    0.5359 C   0  0  0  1  0  0  0  0  0  0  0  0
    4.0284    1.4857    3.5138 C   0  0  0  1  0  0  0  0  0  0  0  0
   -0.0251    0.1118    0.8984 C   0  0  0  1  0  0  0  0  0  0  0  0
   -3.2985    1.7068   -0.0096 C   0  0  0  1  0  0  0  0  0  0  0  0
    3.5063    2.7419    4.1920 C   0  0  0  1  0  0  0  0  0  0  0  0
   -4.2845   -0.3026   -0.0074 C   0  0  0  1  0  0  0  0  0  0  0  0
   -2.9796   -2.9992   -0.0303 C   0  0  0  1  0  0  0  0  0  0  0  0
   -3.3666   -4.1399    0.4833 C   0  0  0  1  0  0  0  0  0  0  0  0
   -3.4787   -4.4854    1.9442 C   0  0  0  1  0  0  0  0  0  0  0  0
    3.6494    3.9913    3.3383 C   0  0  0  1  0  0  0  0  0  0  0  0
   -2.1640   -4.3287    2.6969 C   0  0  0  1  0  0  0  0  0  0  0  0
   -2.3242   -4.3868    4.2105 C   0  0  0  1  0  0  0  0  0  0  0  0
   -3.4251   -3.5186    4.7146 C   0  0  0  1  0  0  0  0  0  0  0  0
   -7.2797    5.9860   -3.3412 H   0  0  0  1  0  0  0  0  0  0  0  0
  -11.5466    4.1616   -2.9814 H   0  0  0  1  0  0  0  0  0  0  0  0
  -10.2228    4.2647   -4.1169 H   0  0  0  1  0  0  0  0  0  0  0  0
  -11.3847    5.5656   -4.0086 H   0  0  0  1  0  0  0  0  0  0  0  0
   -7.0988    8.8131   -3.1409 H   0  0  0  1  0  0  0  0  0  0  0  0
   -6.4484    7.8400   -4.4381 H   0  0  0  1  0  0  0  0  0  0  0  0
   -5.5130    8.0967   -2.9844 H   0  0  0  1  0  0  0  0  0  0  0  0
    1.0441    1.3394   -0.7910 H   0  0  0  1  0  0  0  0  0  0  0  0
   -8.7084    3.9516   -2.2590 H   0  0  0  1  0  0  0  0  0  0  0  0
   -8.2294    2.7413   -0.5840 H   0  0  0  1  0  0  0  0  0  0  0  0
   -8.2162    3.4493    1.0137 H   0  0  0  1  0  0  0  0  0  0  0  0
   -6.3928    4.2237   -1.2174 H   0  0  0  1  0  0  0  0  0  0  0  0
   -6.4836    4.9696    0.3604 H   0  0  0  1  0  0  0  0  0  0  0  0
   -6.9485    1.4320    1.0864 H   0  0  0  1  0  0  0  0  0  0  0  0
   -5.8445    2.7793    1.2289 H   0  0  0  1  0  0  0  0  0  0  0  0
    1.7716    0.1981    2.9353 H   0  0  0  1  0  0  0  0  0  0  0  0
    1.4463    1.8189    2.3683 H   0  0  0  1  0  0  0  0  0  0  0  0
   -8.6825    5.7881   -0.1193 H   0  0  0  1  0  0  0  0  0  0  0  0
   -6.3121    1.0309   -1.1459 H   0  0  0  1  0  0  0  0  0  0  0  0
   -5.4444    2.5449   -1.2410 H   0  0  0  1  0  0  0  0  0  0  0  0
   -2.2189   -1.9569    1.6102 H   0  0  0  1  0  0  0  0  0  0  0  0
   -1.2899   -1.7859    0.1398 H   0  0  0  1  0  0  0  0  0  0  0  0
    1.9095   -0.6156    0.7103 H   0  0  0  1  0  0  0  0  0  0  0  0
    3.6316    2.0570    1.5237 H   0  0  0  1  0  0  0  0  0  0  0  0
    3.9692    0.3554    1.7352 H   0  0  0  1  0  0  0  0  0  0  0  0
   -0.5751    1.9921    0.4225 H   0  0  0  1  0  0  0  0  0  0  0  0
    5.0898    1.5802    3.4171 H   0  0  0  1  0  0  0  0  0  0  0  0
    3.8000    0.6517    4.1441 H   0  0  0  1  0  0  0  0  0  0  0  0
   -0.3683   -0.8071    1.2439 H   0  0  0  1  0  0  0  0  0  0  0  0
    4.0512    2.8880    5.1012 H   0  0  0  1  0  0  0  0  0  0  0  0
    2.4695    2.6007    4.4156 H   0  0  0  1  0  0  0  0  0  0  0  0
   -3.2068   -2.8957   -1.0398 H   0  0  0  1  0  0  0  0  0  0  0  0
   -3.6245   -4.8883   -0.1912 H   0  0  0  1  0  0  0  0  0  0  0  0
   -3.8012   -5.5020    2.0299 H   0  0  0  1  0  0  0  0  0  0  0  0
   -4.2063   -3.8410    2.3917 H   0  0  0  1  0  0  0  0  0  0  0  0
    4.6871    4.2025    3.1854 H   0  0  0  1  0  0  0  0  0  0  0  0
    3.1870    4.8179    3.8360 H   0  0  0  1  0  0  0  0  0  0  0  0
    3.1748    3.8330    2.3924 H   0  0  0  1  0  0  0  0  0  0  0  0
   -1.7349   -3.3835    2.4373 H   0  0  0  1  0  0  0  0  0  0  0  0
   -1.5044   -5.1153    2.3951 H   0  0  0  1  0  0  0  0  0  0  0  0
   -1.4072   -4.0709    4.6624 H   0  0  0  1  0  0  0  0  0  0  0  0
   -2.5315   -5.3980    4.4924 H   0  0  0  1  0  0  0  0  0  0  0  0
  1 34  1  0  0  0  0
  2  4  1  0  0  0  0
  3  4  1  0  0  0  0
  4  5  1  0  0  0  0
  4 32  1  0  0  0  0
  6 10  1  0  0  0  0
  6 26  1  0  0  0  0
  6 42  1  0  0  0  0
  7  8  1  0  0  0  0
  7  9  2  0  0  0  0
  7 13  1  0  0  0  0
  8 43  1  0  0  0  0
  8 44  1  0  0  0  0
  8 45  1  0  0  0  0
 10 46  1  0  0  0  0
 10 47  1  0  0  0  0
 10 48  1  0  0  0  0
 11 27  1  0  0  0  0
 11 49  1  0  0  0  0
 12 26  2  0  0  0  0
 13 23  1  0  0  0  0
 13 50  1  0  0  0  0
 14 41  1  0  0  0  0
 15 24  1  0  0  0  0
 15 32  4  0  0  0  0
 15 34  4  0  0  0  0
 16 41  2  0  0  0  0
 17 18  1  0  0  0  0
 17 20  1  0  0  0  0
 17 51  1  0  0  0  0
 17 52  1  0  0  0  0
 18 23  1  0  0  0  0
 18 53  1  0  0  0  0
 18 54  1  0  0  0  0
 19 21  4  0  0  0  0
 19 29  1  0  0  0  0
 19 32  4  0  0  0  0
 20 24  1  0  0  0  0
 20 55  1  0  0  0  0
 20 56  1  0  0  0  0
 21 25  1  0  0  0  0
 21 34  4  0  0  0  0
 22 27  1  0  0  0  0
 22 28  1  0  0  0  0
 22 57  1  0  0  0  0
 22 58  1  0  0  0  0
 23 26  1  0  0  0  0
 23 59  1  0  0  0  0
 24 60  1  0  0  0  0
 24 61  1  0  0  0  0
 25 35  1  0  0  0  0
 25 62  1  0  0  0  0
 25 63  1  0  0  0  0
 27 31  1  0  0  0  0
 27 64  1  0  0  0  0
 28 30  1  0  0  0  0
 28 65  1  0  0  0  0
 28 66  1  0  0  0  0
 29 31  2  0  0  0  0
 29 67  1  0  0  0  0
 30 33  1  0  0  0  0
 30 68  1  0  0  0  0
 30 69  1  0  0  0  0
 31 70  1  0  0  0  0
 33 38  1  0  0  0  0
 33 71  1  0  0  0  0
 33 72  1  0  0  0  0
 35 36  2  0  0  0  0
 35 73  1  0  0  0  0
 36 37  1  0  0  0  0
 36 74  1  0  0  0  0
 37 39  1  0  0  0  0
 37 75  1  0  0  0  0
 37 76  1  0  0  0  0
 38 77  1  0  0  0  0
 38 78  1  0  0  0  0
 38 79  1  0  0  0  0
 39 40  1  0  0  0  0
 39 80  1  0  0  0  0
 39 81  1  0  0  0  0
 40 41  1  0  0  0  0
 40 82  1  0  0  0  0
 40 83  1  0  0  0  0
M  END
> <ConfClashScore>
0 

> <ConfOneFourInteractionScore>
-0.988298 

> <ConfScore>
0.0936054 

> <ConfScorePBest>
0.00367564 

> <ConfTolerance>
1.84543 

$$$$
9548876
  PyMOL2.2          3D                             0

 83 83  0  0  0  0  0  0  0  0999 V2000
   -5.0089   -1.0393   -0.0871 H   0  0  0  1  0  0  0  0  0  0  0  0
   -2.3830    3.5369    0.5012 H   0  0  0  1  0  0  0  0  0  0  0  0
   -4.0965    3.6477    0.1786 H   0  0  0  1  0  0  0  0  0  0  0  0
   -3.1780    3.1913   -0.1261 C   0  0  0  1  0  0  0  0  0  0  0  0
   -2.9693    3.4525   -1.1425 H   0  0  0  1  0  0  0  0  0  0  0  0
   -6.3624    3.8657    6.4401 N   0  0  0  1  0  0  0  0  0  0  0  0
   -4.8831    1.8304    5.0530 C   0  0  0  1  0  0  0  0  0  0  0  0
   -3.5299    1.2296    5.4264 C   0  0  0  1  0  0  0  0  0  0  0  0
   -5.9234    1.1919    5.2045 O   0  0  0  1  0  0  0  0  0  0  0  0
   -7.1045    4.0207    7.6824 C   0  0  0  1  0  0  0  0  0  0  0  0
    1.9637   -0.8988    0.4264 O   0  0  0  1  0  0  0  0  0  0  0  0
   -8.0639    4.4607    5.0845 O   0  0  0  1  0  0  0  0  0  0  0  0
   -4.8289    3.0457    4.4853 N   0  0  0  1  0  0  0  0  0  0  0  0
   -5.7189   -8.3599    1.9804 O   0  5  0  1  0  0  0  0  0  0  0  0
   -4.4768    1.0536   -0.1837 N   0  0  0  1  0  0  0  0  0  0  0  0
   -3.6907   -7.4082    2.4530 O   0  0  0  1  0  0  0  0  0  0  0  0
   -5.9850    2.6347    1.7353 C   0  0  0  1  0  0  0  0  0  0  0  0
   -6.7741    2.9546    2.9806 C   0  0  0  1  0  0  0  0  0  0  0  0
   -2.3220    0.7646    0.2787 C   0  0  0  1  0  0  0  0  0  0  0  0
   -6.6656    1.9517    0.5646 C   0  0  0  1  0  0  0  0  0  0  0  0
   -2.9454   -0.4918    0.2764 C   0  0  0  1  0  0  0  0  0  0  0  0
    1.8921    1.5128    0.1714 C   0  0  0  1  0  0  0  0  0  0  0  0
   -6.0232    3.7543    4.0498 C   0  0  0  1  0  0  0  0  0  0  0  0
   -5.7301    1.6820   -0.6026 C   0  0  0  1  0  0  0  0  0  0  0  0
   -2.2754   -1.8191    0.5422 C   0  0  0  1  0  0  0  0  0  0  0  0
   -6.9307    4.0377    5.2432 C   0  0  0  1  0  0  0  0  0  0  0  0
    1.4336    0.3018    0.9834 C   0  0  0  1  0  0  0  0  0  0  0  0
    3.3959    1.6568    0.0038 C   0  0  0  1  0  0  0  0  0  0  0  0
   -0.9095    1.0170    0.5366 C   0  0  0  1  0  0  0  0  0  0  0  0
    3.7903    2.8602   -0.7825 C   0  0  0  1  0  0  0  0  0  0  0  0
   -0.0536    0.1464    1.0163 C   0  0  0  1  0  0  0  0  0  0  0  0
   -3.2965    1.7107   -0.0084 C   0  0  0  1  0  0  0  0  0  0  0  0
    4.0284    2.6826   -2.2697 C   0  0  0  1  0  0  0  0  0  0  0  0
   -4.2824   -0.2988   -0.0125 C   0  0  0  1  0  0  0  0  0  0  0  0
   -2.4778   -2.2063    1.9678 C   0  0  0  1  0  0  0  0  0  0  0  0
   -3.0789   -3.2580    2.4709 C   0  0  0  1  0  0  0  0  0  0  0  0
   -3.4405   -4.4961    1.6948 C   0  0  0  1  0  0  0  0  0  0  0  0
    4.5604    3.9342   -2.9485 C   0  0  0  1  0  0  0  0  0  0  0  0
   -4.9218   -4.8301    1.7630 C   0  0  0  1  0  0  0  0  0  0  0  0
   -5.2632   -6.1819    1.1577 C   0  0  0  1  0  0  0  0  0  0  0  0
   -4.7927   -7.3652    1.9314 C   0  0  0  1  0  0  0  0  0  0  0  0
   -5.4129    3.6270    6.4830 H   0  0  0  1  0  0  0  0  0  0  0  0
   -2.9448    1.0896    4.5415 H   0  0  0  1  0  0  0  0  0  0  0  0
   -3.6796    0.2858    5.9077 H   0  0  0  1  0  0  0  0  0  0  0  0
   -3.0170    1.8924    6.0916 H   0  0  0  1  0  0  0  0  0  0  0  0
   -6.7937    3.2711    8.3799 H   0  0  0  1  0  0  0  0  0  0  0  0
   -8.1513    3.9144    7.4879 H   0  0  0  1  0  0  0  0  0  0  0  0
   -6.9140    4.9903    8.0927 H   0  0  0  1  0  0  0  0  0  0  0  0
    2.7444   -0.6935   -0.0932 H   0  0  0  1  0  0  0  0  0  0  0  0
   -3.9548    3.4706    4.3599 H   0  0  0  1  0  0  0  0  0  0  0  0
   -5.1764    2.0014    2.0354 H   0  0  0  1  0  0  0  0  0  0  0  0
   -5.5957    3.5616    1.3690 H   0  0  0  1  0  0  0  0  0  0  0  0
   -7.0865    2.0300    3.4193 H   0  0  0  1  0  0  0  0  0  0  0  0
   -7.6343    3.5204    2.6894 H   0  0  0  1  0  0  0  0  0  0  0  0
   -7.4626    2.5785    0.2228 H   0  0  0  1  0  0  0  0  0  0  0  0
   -7.0650    1.0181    0.9020 H   0  0  0  1  0  0  0  0  0  0  0  0
    1.5290    2.3932    0.6591 H   0  0  0  1  0  0  0  0  0  0  0  0
    1.4574    1.4395   -0.8036 H   0  0  0  1  0  0  0  0  0  0  0  0
   -5.7354    4.6914    3.6211 H   0  0  0  1  0  0  0  0  0  0  0  0
   -6.2242    1.0331   -1.2952 H   0  0  0  1  0  0  0  0  0  0  0  0
   -5.5041    2.6112   -1.0826 H   0  0  0  1  0  0  0  0  0  0  0  0
   -1.2277   -1.7352    0.3417 H   0  0  0  1  0  0  0  0  0  0  0  0
   -2.7020   -2.5666   -0.0935 H   0  0  0  1  0  0  0  0  0  0  0  0
    1.7851    0.4184    1.9872 H   0  0  0  1  0  0  0  0  0  0  0  0
    3.7662    0.7874   -0.4981 H   0  0  0  1  0  0  0  0  0  0  0  0
    3.8405    1.7252    0.9747 H   0  0  0  1  0  0  0  0  0  0  0  0
   -0.5496    1.9688    0.3218 H   0  0  0  1  0  0  0  0  0  0  0  0
    4.6965    3.2375   -0.3565 H   0  0  0  1  0  0  0  0  0  0  0  0
    3.0125    3.5860   -0.6677 H   0  0  0  1  0  0  0  0  0  0  0  0
   -0.4378   -0.7162    1.4521 H   0  0  0  1  0  0  0  0  0  0  0  0
    3.1015    2.4139   -2.7319 H   0  0  0  1  0  0  0  0  0  0  0  0
    4.7382    1.8939   -2.4078 H   0  0  0  1  0  0  0  0  0  0  0  0
   -2.0840   -1.5445    2.6668 H   0  0  0  1  0  0  0  0  0  0  0  0
   -3.3240   -3.2347    3.4814 H   0  0  0  1  0  0  0  0  0  0  0  0
   -2.8868   -5.3209    2.0922 H   0  0  0  1  0  0  0  0  0  0  0  0
   -3.1720   -4.3461    0.6700 H   0  0  0  1  0  0  0  0  0  0  0  0
    3.8741    4.7412   -2.7983 H   0  0  0  1  0  0  0  0  0  0  0  0
    4.6715    3.7512   -3.9969 H   0  0  0  1  0  0  0  0  0  0  0  0
    5.5102    4.1912   -2.5282 H   0  0  0  1  0  0  0  0  0  0  0  0
   -5.4646   -4.0747    1.2340 H   0  0  0  1  0  0  0  0  0  0  0  0
   -5.2221   -4.8326    2.7900 H   0  0  0  1  0  0  0  0  0  0  0  0
   -4.8228   -6.2281    0.1836 H   0  0  0  1  0  0  0  0  0  0  0  0
   -6.3278   -6.2457    1.0717 H   0  0  0  1  0  0  0  0  0  0  0  0
  1 34  1  0  0  0  0
  2  4  1  0  0  0  0
  3  4  1  0  0  0  0
  4  5  1  0  0  0  0
  4 32  1  0  0  0  0
  6 10  1  0  0  0  0
  6 26  1  0  0  0  0
  6 42  1  0  0  0  0
  7  8  1  0  0  0  0
  7  9  2  0  0  0  0
  7 13  1  0  0  0  0
  8 43  1  0  0  0  0
  8 44  1  0  0  0  0
  8 45  1  0  0  0  0
 10 46  1  0  0  0  0
 10 47  1  0  0  0  0
 10 48  1  0  0  0  0
 11 27  1  0  0  0  0
 11 49  1  0  0  0  0
 12 26  2  0  0  0  0
 13 23  1  0  0  0  0
 13 50  1  0  0  0  0
 14 41  1  0  0  0  0
 15 24  1  0  0  0  0
 15 32  4  0  0  0  0
 15 34  4  0  0  0  0
 16 41  2  0  0  0  0
 17 18  1  0  0  0  0
 17 20  1  0  0  0  0
 17 51  1  0  0  0  0
 17 52  1  0  0  0  0
 18 23  1  0  0  0  0
 18 53  1  0  0  0  0
 18 54  1  0  0  0  0
 19 21  4  0  0  0  0
 19 29  1  0  0  0  0
 19 32  4  0  0  0  0
 20 24  1  0  0  0  0
 20 55  1  0  0  0  0
 20 56  1  0  0  0  0
 21 25  1  0  0  0  0
 21 34  4  0  0  0  0
 22 27  1  0  0  0  0
 22 28  1  0  0  0  0
 22 57  1  0  0  0  0
 22 58  1  0  0  0  0
 23 26  1  0  0  0  0
 23 59  1  0  0  0  0
 24 60  1  0  0  0  0
 24 61  1  0  0  0  0
 25 35  1  0  0  0  0
 25 62  1  0  0  0  0
 25 63  1  0  0  0  0
 27 31  1  0  0  0  0
 27 64  1  0  0  0  0
 28 30  1  0  0  0  0
 28 65  1  0  0  0  0
 28 66  1  0  0  0  0
 29 31  2  0  0  0  0
 29 67  1  0  0  0  0
 30 33  1  0  0  0  0
 30 68  1  0  0  0  0
 30 69  1  0  0  0  0
 31 70  1  0  0  0  0
 33 38  1  0  0  0  0
 33 71  1  0  0  0  0
 33 72  1  0  0  0  0
 35 36  2  0  0  0  0
 35 73  1  0  0  0  0
 36 37  1  0  0  0  0
 36 74  1  0  0  0  0
 37 39  1  0  0  0  0
 37 75  1  0  0  0  0
 37 76  1  0  0  0  0
 38 77  1  0  0  0  0
 38 78  1  0  0  0  0
 38 79  1  0  0  0  0
 39 40  1  0  0  0  0
 39 80  1  0  0  0  0
 39 81  1  0  0  0  0
 40 41  1  0  0  0  0
 40 82  1  0  0  0  0
 40 83  1  0  0  0  0
M  END
> <ConfClashScore>
0 

> <ConfOneFourInteractionScore>
-0.984214 

> <ConfScore>
0.0954578 

> <ConfScorePBest>
0.00364716 

> <ConfTolerance>
1.76578 

$$$$
9548876
  PyMOL2.2          3D                             0

 83 83  0  0  0  0  0  0  0  0999 V2000
   -4.9978   -1.0351   -0.0742 H   0  0  0  1  0  0  0  0  0  0  0  0
   -4.1537    3.6172    0.0953 H   0  0  0  1  0  0  0  0  0  0  0  0
   -2.9333    3.4450   -1.1430 H   0  0  0  1  0  0  0  0  0  0  0  0
   -3.2010    3.1902   -0.1388 C   0  0  0  1  0  0  0  0  0  0  0  0
   -2.4635    3.5728    0.5355 H   0  0  0  1  0  0  0  0  0  0  0  0
   -9.6658    2.4839   -4.7458 N   0  0  0  1  0  0  0  0  0  0  0  0
  -11.5482   -0.3965   -2.3165 C   0  0  0  1  0  0  0  0  0  0  0  0
  -12.1415   -1.8048   -2.2670 C   0  0  0  1  0  0  0  0  0  0  0  0
  -12.2606    0.5851   -2.1104 O   0  0  0  1  0  0  0  0  0  0  0  0
   -9.4927    2.9071   -6.1274 C   0  0  0  1  0  0  0  0  0  0  0  0
    1.7177    2.8542   -0.8729 O   0  0  0  1  0  0  0  0  0  0  0  0
   -8.9816    0.3759   -5.1639 O   0  0  0  1  0  0  0  0  0  0  0  0
  -10.2711   -0.2886   -2.6767 N   0  0  0  1  0  0  0  0  0  0  0  0
    1.2551   -1.5367   -4.2536 O   0  5  0  1  0  0  0  0  0  0  0  0
   -4.4571    1.0552   -0.1782 N   0  0  0  1  0  0  0  0  0  0  0  0
    1.8433   -3.7319   -3.9915 O   0  0  0  1  0  0  0  0  0  0  0  0
   -7.1849    1.9518   -2.6617 C   0  0  0  1  0  0  0  0  0  0  0  0
   -8.1134    0.8020   -2.2913 C   0  0  0  1  0  0  0  0  0  0  0  0
   -2.3034    0.7588    0.2846 C   0  0  0  1  0  0  0  0  0  0  0  0
   -5.7986    1.7172   -2.1148 C   0  0  0  1  0  0  0  0  0  0  0  0
   -2.9320   -0.4949    0.2867 C   0  0  0  1  0  0  0  0  0  0  0  0
    1.7030    3.2475    1.4833 C   0  0  0  1  0  0  0  0  0  0  0  0
   -9.5167    0.9339   -2.8975 C   0  0  0  1  0  0  0  0  0  0  0  0
   -5.6812    1.7367   -0.6003 C   0  0  0  1  0  0  0  0  0  0  0  0
   -2.3205   -1.8558    0.5494 C   0  0  0  1  0  0  0  0  0  0  0  0
   -9.3860    1.2271   -4.3891 C   0  0  0  1  0  0  0  0  0  0  0  0
    1.2551    2.3054    0.3609 C   0  0  0  1  0  0  0  0  0  0  0  0
    1.4403    2.8767    2.9302 C   0  0  0  1  0  0  0  0  0  0  0  0
   -0.8880    1.0066    0.5415 C   0  0  0  1  0  0  0  0  0  0  0  0
   -0.0053    2.5082    3.2035 C   0  0  0  1  0  0  0  0  0  0  0  0
   -0.2299    2.1290    0.3943 C   0  0  0  1  0  0  0  0  0  0  0  0
   -3.2740    1.7080   -0.0055 C   0  0  0  1  0  0  0  0  0  0  0  0
   -0.3879    2.4356    4.6423 C   0  0  0  1  0  0  0  0  0  0  0  0
   -4.2682   -0.2974   -0.0024 C   0  0  0  1  0  0  0  0  0  0  0  0
   -2.8854   -2.9083   -0.3396 C   0  0  0  1  0  0  0  0  0  0  0  0
   -2.3319   -3.8810   -1.0236 C   0  0  0  1  0  0  0  0  0  0  0  0
   -0.9253   -4.3798   -0.8265 C   0  0  0  1  0  0  0  0  0  0  0  0
   -1.8296    2.1528    4.9684 C   0  0  0  1  0  0  0  0  0  0  0  0
   -0.0832   -4.3009   -2.0895 C   0  0  0  1  0  0  0  0  0  0  0  0
    0.2779   -2.8785   -2.4852 C   0  0  0  1  0  0  0  0  0  0  0  0
    1.1996   -2.7538   -3.6492 C   0  0  0  1  0  0  0  0  0  0  0  0
   -9.9882    3.1221   -4.0756 H   0  0  0  1  0  0  0  0  0  0  0  0
  -12.6341   -2.0176   -3.1927 H   0  0  0  1  0  0  0  0  0  0  0  0
  -12.8474   -1.8661   -1.4652 H   0  0  0  1  0  0  0  0  0  0  0  0
  -11.3581   -2.5162   -2.1084 H   0  0  0  1  0  0  0  0  0  0  0  0
   -8.5230    3.3429   -6.2487 H   0  0  0  1  0  0  0  0  0  0  0  0
  -10.2418    3.6299   -6.3752 H   0  0  0  1  0  0  0  0  0  0  0  0
   -9.5862    2.0598   -6.7741 H   0  0  0  1  0  0  0  0  0  0  0  0
    1.7666    2.1600   -1.5341 H   0  0  0  1  0  0  0  0  0  0  0  0
   -9.7843   -1.1290   -2.8078 H   0  0  0  1  0  0  0  0  0  0  0  0
   -7.5734    2.8618   -2.2543 H   0  0  0  1  0  0  0  0  0  0  0  0
   -7.1327    2.0313   -3.7275 H   0  0  0  1  0  0  0  0  0  0  0  0
   -8.2057    0.7703   -1.2257 H   0  0  0  1  0  0  0  0  0  0  0  0
   -7.6779   -0.1113   -2.6393 H   0  0  0  1  0  0  0  0  0  0  0  0
   -5.1570    2.4795   -2.5049 H   0  0  0  1  0  0  0  0  0  0  0  0
   -5.4662    0.7601   -2.4588 H   0  0  0  1  0  0  0  0  0  0  0  0
    1.2184    4.1859    1.3115 H   0  0  0  1  0  0  0  0  0  0  0  0
    2.7613    3.3682    1.3821 H   0  0  0  1  0  0  0  0  0  0  0  0
  -10.0159    1.7557   -2.4281 H   0  0  0  1  0  0  0  0  0  0  0  0
   -5.6553    2.7512   -0.2612 H   0  0  0  1  0  0  0  0  0  0  0  0
   -6.5272    1.2391   -0.1741 H   0  0  0  1  0  0  0  0  0  0  0  0
   -2.5089   -2.1272    1.5671 H   0  0  0  1  0  0  0  0  0  0  0  0
   -1.2649   -1.7965    0.3851 H   0  0  0  1  0  0  0  0  0  0  0  0
    1.7120    1.3515    0.5229 H   0  0  0  1  0  0  0  0  0  0  0  0
    1.7000    3.7117    3.5469 H   0  0  0  1  0  0  0  0  0  0  0  0
    2.0573    2.0400    3.1834 H   0  0  0  1  0  0  0  0  0  0  0  0
   -0.3359    0.1939    0.8826 H   0  0  0  1  0  0  0  0  0  0  0  0
   -0.1897    1.5499    2.7647 H   0  0  0  1  0  0  0  0  0  0  0  0
   -0.6268    3.2417    2.7338 H   0  0  0  1  0  0  0  0  0  0  0  0
   -0.8016    2.9914    0.2892 H   0  0  0  1  0  0  0  0  0  0  0  0
   -0.1381    3.3761    5.0874 H   0  0  0  1  0  0  0  0  0  0  0  0
    0.1990    1.6613    5.0905 H   0  0  0  1  0  0  0  0  0  0  0  0
   -3.9199   -2.8634   -0.4372 H   0  0  0  1  0  0  0  0  0  0  0  0
   -2.9076   -4.3421   -1.7567 H   0  0  0  1  0  0  0  0  0  0  0  0
   -0.9673   -5.4005   -0.5084 H   0  0  0  1  0  0  0  0  0  0  0  0
   -0.4573   -3.7881   -0.0677 H   0  0  0  1  0  0  0  0  0  0  0  0
   -1.9790    2.2316    6.0250 H   0  0  0  1  0  0  0  0  0  0  0  0
   -2.0806    1.1639    4.6457 H   0  0  0  1  0  0  0  0  0  0  0  0
   -2.4543    2.8617    4.4662 H   0  0  0  1  0  0  0  0  0  0  0  0
   -0.6325   -4.7472   -2.8919 H   0  0  0  1  0  0  0  0  0  0  0  0
    0.8219   -4.8484   -1.9284 H   0  0  0  1  0  0  0  0  0  0  0  0
    0.7438   -2.4099   -1.6436 H   0  0  0  1  0  0  0  0  0  0  0  0
   -0.6283   -2.3624   -2.7249 H   0  0  0  1  0  0  0  0  0  0  0  0
  1 34  1  0  0  0  0
  2  4  1  0  0  0  0
  3  4  1  0  0  0  0
  4  5  1  0  0  0  0
  4 32  1  0  0  0  0
  6 10  1  0  0  0  0
  6 26  1  0  0  0  0
  6 42  1  0  0  0  0
  7  8  1  0  0  0  0
  7  9  2  0  0  0  0
  7 13  1  0  0  0  0
  8 43  1  0  0  0  0
  8 44  1  0  0  0  0
  8 45  1  0  0  0  0
 10 46  1  0  0  0  0
 10 47  1  0  0  0  0
 10 48  1  0  0  0  0
 11 27  1  0  0  0  0
 11 49  1  0  0  0  0
 12 26  2  0  0  0  0
 13 23  1  0  0  0  0
 13 50  1  0  0  0  0
 14 41  1  0  0  0  0
 15 24  1  0  0  0  0
 15 32  4  0  0  0  0
 15 34  4  0  0  0  0
 16 41  2  0  0  0  0
 17 18  1  0  0  0  0
 17 20  1  0  0  0  0
 17 51  1  0  0  0  0
 17 52  1  0  0  0  0
 18 23  1  0  0  0  0
 18 53  1  0  0  0  0
 18 54  1  0  0  0  0
 19 21  4  0  0  0  0
 19 29  1  0  0  0  0
 19 32  4  0  0  0  0
 20 24  1  0  0  0  0
 20 55  1  0  0  0  0
 20 56  1  0  0  0  0
 21 25  1  0  0  0  0
 21 34  4  0  0  0  0
 22 27  1  0  0  0  0
 22 28  1  0  0  0  0
 22 57  1  0  0  0  0
 22 58  1  0  0  0  0
 23 26  1  0  0  0  0
 23 59  1  0  0  0  0
 24 60  1  0  0  0  0
 24 61  1  0  0  0  0
 25 35  1  0  0  0  0
 25 62  1  0  0  0  0
 25 63  1  0  0  0  0
 27 31  1  0  0  0  0
 27 64  1  0  0  0  0
 28 30  1  0  0  0  0
 28 65  1  0  0  0  0
 28 66  1  0  0  0  0
 29 31  2  0  0  0  0
 29 67  1  0  0  0  0
 30 33  1  0  0  0  0
 30 68  1  0  0  0  0
 30 69  1  0  0  0  0
 31 70  1  0  0  0  0
 33 38  1  0  0  0  0
 33 71  1  0  0  0  0
 33 72  1  0  0  0  0
 35 36  2  0  0  0  0
 35 73  1  0  0  0  0
 36 37  1  0  0  0  0
 36 74  1  0  0  0  0
 37 39  1  0  0  0  0
 37 75  1  0  0  0  0
 37 76  1  0  0  0  0
 38 77  1  0  0  0  0
 38 78  1  0  0  0  0
 38 79  1  0  0  0  0
 39 40  1  0  0  0  0
 39 80  1  0  0  0  0
 39 81  1  0  0  0  0
 40 41  1  0  0  0  0
 40 82  1  0  0  0  0
 40 83  1  0  0  0  0
M  END
> <ConfClashScore>
0 

> <ConfOneFourInteractionScore>
-0.99303 

> <ConfScore>
0.0984715 

> <ConfScorePBest>
0.00361868 

> <ConfTolerance>
2.09628 

$$$$
9548876
  PyMOL2.2          3D                             0

 83 83  0  0  0  0  0  0  0  0999 V2000
   -5.0152   -1.0339   -0.0872 H   0  0  0  1  0  0  0  0  0  0  0  0
   -2.8174    3.5935    0.8013 H   0  0  0  1  0  0  0  0  0  0  0  0
   -4.1243    3.6102   -0.3581 H   0  0  0  1  0  0  0  0  0  0  0  0
   -3.1683    3.1897   -0.1254 C   0  0  0  1  0  0  0  0  0  0  0  0
   -2.4741    3.4285   -0.9039 H   0  0  0  1  0  0  0  0  0  0  0  0
   -8.8735    4.5759   -5.2352 N   0  0  0  1  0  0  0  0  0  0  0  0
  -10.6209    2.0480   -6.2386 C   0  0  0  1  0  0  0  0  0  0  0  0
  -10.7051    1.6321   -7.6898 C   0  0  0  1  0  0  0  0  0  0  0  0
  -11.6254    2.3781   -5.6097 O   0  0  0  1  0  0  0  0  0  0  0  0
   -8.7685    6.0274   -5.2377 C   0  0  0  1  0  0  0  0  0  0  0  0
    1.8769    1.8129    0.9153 O   0  0  0  1  0  0  0  0  0  0  0  0
   -9.1849    4.3791   -3.0102 O   0  0  0  1  0  0  0  0  0  0  0  0
   -9.3983    2.0308   -5.6999 N   0  0  0  1  0  0  0  0  0  0  0  0
   -5.1351   -2.9721   -0.8926 O   0  5  0  1  0  0  0  0  0  0  0  0
   -4.4752    1.0570   -0.1836 N   0  0  0  1  0  0  0  0  0  0  0  0
   -7.4081   -3.0200   -0.8183 O   0  0  0  1  0  0  0  0  0  0  0  0
   -7.4548    1.8881   -2.4130 C   0  0  0  1  0  0  0  0  0  0  0  0
   -7.8425    1.6128   -3.8531 C   0  0  0  1  0  0  0  0  0  0  0  0
   -2.3217    0.7598    0.2795 C   0  0  0  1  0  0  0  0  0  0  0  0
   -6.1608    1.2092   -1.9974 C   0  0  0  1  0  0  0  0  0  0  0  0
   -2.9498   -0.4942    0.2769 C   0  0  0  1  0  0  0  0  0  0  0  0
    2.0619   -0.1801   -0.3858 C   0  0  0  1  0  0  0  0  0  0  0  0
   -9.0893    2.3602   -4.2944 C   0  0  0  1  0  0  0  0  0  0  0  0
   -5.7476    1.6458   -0.6022 C   0  0  0  1  0  0  0  0  0  0  0  0
   -2.2848   -1.8240    0.5430 C   0  0  0  1  0  0  0  0  0  0  0  0
   -9.0275    3.8734   -4.1092 C   0  0  0  1  0  0  0  0  0  0  0  0
    1.4478    1.2140   -0.3037 C   0  0  0  1  0  0  0  0  0  0  0  0
    1.6755   -0.9895   -1.5988 C   0  0  0  1  0  0  0  0  0  0  0  0
   -0.9171    1.0616    0.5308 C   0  0  0  1  0  0  0  0  0  0  0  0
    2.4066   -2.3156   -1.6949 C   0  0  0  1  0  0  0  0  0  0  0  0
   -0.0424    1.2122   -0.4320 C   0  0  0  1  0  0  0  0  0  0  0  0
   -3.2924    1.7096   -0.0079 C   0  0  0  1  0  0  0  0  0  0  0  0
    2.1243   -2.9910   -3.0261 C   0  0  0  1  0  0  0  0  0  0  0  0
   -4.2859   -0.2962   -0.0124 C   0  0  0  1  0  0  0  0  0  0  0  0
   -2.5368   -2.3838    1.9069 C   0  0  0  1  0  0  0  0  0  0  0  0
   -3.1224   -3.5121    2.1468 C   0  0  0  1  0  0  0  0  0  0  0  0
   -3.9388   -4.3744    1.2373 C   0  0  0  1  0  0  0  0  0  0  0  0
    2.9484   -4.2472   -3.2509 C   0  0  0  1  0  0  0  0  0  0  0  0
   -5.4160   -4.4009    1.6072 C   0  0  0  1  0  0  0  0  0  0  0  0
   -6.1546   -3.1271    1.2299 C   0  0  0  1  0  0  0  0  0  0  0  0
   -6.3303   -3.0361   -0.2469 C   0  0  0  1  0  0  0  0  0  0  0  0
   -8.8299    4.0971   -6.0892 H   0  0  0  1  0  0  0  0  0  0  0  0
  -11.2602    2.3634   -8.2393 H   0  0  0  1  0  0  0  0  0  0  0  0
  -11.1965    0.6842   -7.7609 H   0  0  0  1  0  0  0  0  0  0  0  0
   -9.7184    1.5543   -8.0961 H   0  0  0  1  0  0  0  0  0  0  0  0
   -9.6659    6.4498   -5.6392 H   0  0  0  1  0  0  0  0  0  0  0  0
   -7.9349    6.3234   -5.8397 H   0  0  0  1  0  0  0  0  0  0  0  0
   -8.6275    6.3763   -4.2361 H   0  0  0  1  0  0  0  0  0  0  0  0
    1.8202    1.1697    1.6257 H   0  0  0  1  0  0  0  0  0  0  0  0
   -8.6504    1.7807   -6.2817 H   0  0  0  1  0  0  0  0  0  0  0  0
   -8.2409    1.5379   -1.7771 H   0  0  0  1  0  0  0  0  0  0  0  0
   -7.3387    2.9445   -2.2888 H   0  0  0  1  0  0  0  0  0  0  0  0
   -8.0197    0.5632   -3.9620 H   0  0  0  1  0  0  0  0  0  0  0  0
   -7.0301    1.9054   -4.4850 H   0  0  0  1  0  0  0  0  0  0  0  0
   -5.3887    1.4717   -2.6902 H   0  0  0  1  0  0  0  0  0  0  0  0
   -6.3026    0.1487   -2.0056 H   0  0  0  1  0  0  0  0  0  0  0  0
    1.7596   -0.7251    0.4840 H   0  0  0  1  0  0  0  0  0  0  0  0
    3.1264   -0.0718   -0.3873 H   0  0  0  1  0  0  0  0  0  0  0  0
   -9.8992    2.0038   -3.6928 H   0  0  0  1  0  0  0  0  0  0  0  0
   -5.6526    2.7115   -0.5905 H   0  0  0  1  0  0  0  0  0  0  0  0
   -6.5075    1.3474    0.0895 H   0  0  0  1  0  0  0  0  0  0  0  0
   -1.2289   -1.6990    0.4234 H   0  0  0  1  0  0  0  0  0  0  0  0
   -2.6451   -2.5275   -0.1783 H   0  0  0  1  0  0  0  0  0  0  0  0
    1.8400    1.7835   -1.1203 H   0  0  0  1  0  0  0  0  0  0  0  0
    1.8973   -0.4157   -2.4743 H   0  0  0  1  0  0  0  0  0  0  0  0
    0.6242   -1.1840   -1.5561 H   0  0  0  1  0  0  0  0  0  0  0  0
   -0.5970    1.1613    1.5153 H   0  0  0  1  0  0  0  0  0  0  0  0
    2.0801   -2.9546   -0.9011 H   0  0  0  1  0  0  0  0  0  0  0  0
    3.4588   -2.1435   -1.6050 H   0  0  0  1  0  0  0  0  0  0  0  0
   -0.4255    1.3449   -1.3898 H   0  0  0  1  0  0  0  0  0  0  0  0
    2.3419   -2.2974   -3.8113 H   0  0  0  1  0  0  0  0  0  0  0  0
    1.0878   -3.2547   -3.0597 H   0  0  0  1  0  0  0  0  0  0  0  0
   -2.2175   -1.8242    2.7233 H   0  0  0  1  0  0  0  0  0  0  0  0
   -3.0087   -3.8730    3.1155 H   0  0  0  1  0  0  0  0  0  0  0  0
   -3.5583   -5.3735    1.2829 H   0  0  0  1  0  0  0  0  0  0  0  0
   -3.8444   -4.0015    0.2389 H   0  0  0  1  0  0  0  0  0  0  0  0
    3.5465   -4.4417   -2.3852 H   0  0  0  1  0  0  0  0  0  0  0  0
    3.5847   -4.1089   -4.0999 H   0  0  0  1  0  0  0  0  0  0  0  0
    2.2945   -5.0759   -3.4259 H   0  0  0  1  0  0  0  0  0  0  0  0
   -5.4985   -4.5402    2.6649 H   0  0  0  1  0  0  0  0  0  0  0  0
   -5.8777   -5.2232    1.1016 H   0  0  0  1  0  0  0  0  0  0  0  0
   -5.5926   -2.2821    1.5691 H   0  0  0  1  0  0  0  0  0  0  0  0
   -7.1167   -3.1276    1.6983 H   0  0  0  1  0  0  0  0  0  0  0  0
  1 34  1  0  0  0  0
  2  4  1  0  0  0  0
  3  4  1  0  0  0  0
  4  5  1  0  0  0  0
  4 32  1  0  0  0  0
  6 10  1  0  0  0  0
  6 26  1  0  0  0  0
  6 42  1  0  0  0  0
  7  8  1  0  0  0  0
  7  9  2  0  0  0  0
  7 13  1  0  0  0  0
  8 43  1  0  0  0  0
  8 44  1  0  0  0  0
  8 45  1  0  0  0  0
 10 46  1  0  0  0  0
 10 47  1  0  0  0  0
 10 48  1  0  0  0  0
 11 27  1  0  0  0  0
 11 49  1  0  0  0  0
 12 26  2  0  0  0  0
 13 23  1  0  0  0  0
 13 50  1  0  0  0  0
 14 41  1  0  0  0  0
 15 24  1  0  0  0  0
 15 32  4  0  0  0  0
 15 34  4  0  0  0  0
 16 41  2  0  0  0  0
 17 18  1  0  0  0  0
 17 20  1  0  0  0  0
 17 51  1  0  0  0  0
 17 52  1  0  0  0  0
 18 23  1  0  0  0  0
 18 53  1  0  0  0  0
 18 54  1  0  0  0  0
 19 21  4  0  0  0  0
 19 29  1  0  0  0  0
 19 32  4  0  0  0  0
 20 24  1  0  0  0  0
 20 55  1  0  0  0  0
 20 56  1  0  0  0  0
 21 25  1  0  0  0  0
 21 34  4  0  0  0  0
 22 27  1  0  0  0  0
 22 28  1  0  0  0  0
 22 57  1  0  0  0  0
 22 58  1  0  0  0  0
 23 26  1  0  0  0  0
 23 59  1  0  0  0  0
 24 60  1  0  0  0  0
 24 61  1  0  0  0  0
 25 35  1  0  0  0  0
 25 62  1  0  0  0  0
 25 63  1  0  0  0  0
 27 31  1  0  0  0  0
 27 64  1  0  0  0  0
 28 30  1  0  0  0  0
 28 65  1  0  0  0  0
 28 66  1  0  0  0  0
 29 31  2  0  0  0  0
 29 67  1  0  0  0  0
 30 33  1  0  0  0  0
 30 68  1  0  0  0  0
 30 69  1  0  0  0  0
 31 70  1  0  0  0  0
 33 38  1  0  0  0  0
 33 71  1  0  0  0  0
 33 72  1  0  0  0  0
 35 36  2  0  0  0  0
 35 73  1  0  0  0  0
 36 37  1  0  0  0  0
 36 74  1  0  0  0  0
 37 39  1  0  0  0  0
 37 75  1  0  0  0  0
 37 76  1  0  0  0  0
 38 77  1  0  0  0  0
 38 78  1  0  0  0  0
 38 79  1  0  0  0  0
 39 40  1  0  0  0  0
 39 80  1  0  0  0  0
 39 81  1  0  0  0  0
 40 41  1  0  0  0  0
 40 82  1  0  0  0  0
 40 83  1  0  0  0  0
M  END
> <ConfClashScore>
0 

> <ConfOneFourInteractionScore>
-0.984625 

> <ConfScore>
0.106127 

> <ConfScorePBest>
0.0035902 

> <ConfTolerance>
2.23664 

$$$$
9548876
  PyMOL2.2          3D                             0

 83 83  0  0  0  0  0  0  0  0999 V2000
   -5.0086   -1.0379   -0.1091 H   0  0  0  1  0  0  0  0  0  0  0  0
   -3.0437    3.4557   -1.1647 H   0  0  0  1  0  0  0  0  0  0  0  0
   -2.3251    3.5247    0.4263 H   0  0  0  1  0  0  0  0  0  0  0  0
   -3.1716    3.1901   -0.1361 C   0  0  0  1  0  0  0  0  0  0  0  0
   -4.0585    3.6528    0.2438 H   0  0  0  1  0  0  0  0  0  0  0  0
  -10.4968    5.1042   -0.6359 N   0  0  0  1  0  0  0  0  0  0  0  0
   -9.7560    6.1969    3.3353 C   0  0  0  1  0  0  0  0  0  0  0  0
  -10.6937    6.3944    4.5104 C   0  0  0  1  0  0  0  0  0  0  0  0
   -8.8924    7.0141    3.0620 O   0  0  0  1  0  0  0  0  0  0  0  0
  -11.4601    4.8600   -1.6991 C   0  0  0  1  0  0  0  0  0  0  0  0
    1.3669    1.8681    1.8696 O   0  0  0  1  0  0  0  0  0  0  0  0
  -10.9435    3.2116    0.5066 O   0  0  0  1  0  0  0  0  0  0  0  0
   -9.9748    5.0684    2.6586 N   0  0  0  1  0  0  0  0  0  0  0  0
    4.4709   -0.7197    3.5298 O   0  5  0  1  0  0  0  0  0  0  0  0
   -4.4725    1.0540   -0.2046 N   0  0  0  1  0  0  0  0  0  0  0  0
    4.4396    0.2395    1.4674 O   0  0  0  1  0  0  0  0  0  0  0  0
   -7.5605    3.1538    0.4617 C   0  0  0  1  0  0  0  0  0  0  0  0
   -8.3258    3.5464    1.7161 C   0  0  0  1  0  0  0  0  0  0  0  0
   -2.3241    0.7633    0.2858 C   0  0  0  1  0  0  0  0  0  0  0  0
   -6.4651    2.1332    0.7192 C   0  0  0  1  0  0  0  0  0  0  0  0
   -2.9492   -0.4922    0.2789 C   0  0  0  1  0  0  0  0  0  0  0  0
    2.2731    1.9531   -0.3144 C   0  0  0  1  0  0  0  0  0  0  0  0
   -9.2988    4.6918    1.4222 C   0  0  0  1  0  0  0  0  0  0  0  0
   -5.7459    1.6901   -0.5435 C   0  0  0  1  0  0  0  0  0  0  0  0
   -2.2843   -1.8197    0.5566 C   0  0  0  1  0  0  0  0  0  0  0  0
  -10.3499    4.2720    0.3990 C   0  0  0  1  0  0  0  0  0  0  0  0
    1.1294    2.4368    0.5832 C   0  0  0  1  0  0  0  0  0  0  0  0
    1.9936    0.6974   -1.1024 C   0  0  0  1  0  0  0  0  0  0  0  0
   -0.9146    1.0146    0.5608 C   0  0  0  1  0  0  0  0  0  0  0  0
    3.0800    0.2837   -2.0804 C   0  0  0  1  0  0  0  0  0  0  0  0
   -0.2038    1.9992    0.0651 C   0  0  0  1  0  0  0  0  0  0  0  0
   -3.2936    1.7100   -0.0161 C   0  0  0  1  0  0  0  0  0  0  0  0
    2.7549   -0.9939   -2.8372 C   0  0  0  1  0  0  0  0  0  0  0  0
   -4.2821   -0.2983   -0.0274 C   0  0  0  1  0  0  0  0  0  0  0  0
   -1.0753   -2.0366   -0.2970 C   0  0  0  1  0  0  0  0  0  0  0  0
    0.1526   -2.2384    0.1107 C   0  0  0  1  0  0  0  0  0  0  0  0
    0.5542   -2.2154    1.5599 C   0  0  0  1  0  0  0  0  0  0  0  0
    3.7677   -1.3268   -3.9206 C   0  0  0  1  0  0  0  0  0  0  0  0
    1.5641   -1.1407    1.9405 C   0  0  0  1  0  0  0  0  0  0  0  0
    3.0023   -1.6323    1.9239 C   0  0  0  1  0  0  0  0  0  0  0  0
    4.0321   -0.6052    2.2476 C   0  0  0  1  0  0  0  0  0  0  0  0
   -9.9364    5.9069   -0.6806 H   0  0  0  1  0  0  0  0  0  0  0  0
  -11.6067    6.8353    4.1686 H   0  0  0  1  0  0  0  0  0  0  0  0
  -10.2335    7.0397    5.2291 H   0  0  0  1  0  0  0  0  0  0  0  0
  -10.9027    5.4475    4.9627 H   0  0  0  1  0  0  0  0  0  0  0  0
  -12.1698    5.6602   -1.7288 H   0  0  0  1  0  0  0  0  0  0  0  0
  -11.9701    3.9380   -1.5132 H   0  0  0  1  0  0  0  0  0  0  0  0
  -10.9485    4.8024   -2.6372 H   0  0  0  1  0  0  0  0  0  0  0  0
    0.5442    1.5229    2.2241 H   0  0  0  1  0  0  0  0  0  0  0  0
  -10.6398    4.4455    3.0193 H   0  0  0  1  0  0  0  0  0  0  0  0
   -7.1139    4.0335    0.0475 H   0  0  0  1  0  0  0  0  0  0  0  0
   -8.2520    2.7392   -0.2417 H   0  0  0  1  0  0  0  0  0  0  0  0
   -7.6311    3.8602    2.4671 H   0  0  0  1  0  0  0  0  0  0  0  0
   -8.8766    2.7002    2.0703 H   0  0  0  1  0  0  0  0  0  0  0  0
   -6.9044    1.2727    1.1790 H   0  0  0  1  0  0  0  0  0  0  0  0
   -5.7473    2.5662    1.3841 H   0  0  0  1  0  0  0  0  0  0  0  0
    3.1246    1.7695    0.3070 H   0  0  0  1  0  0  0  0  0  0  0  0
    2.4999    2.7346   -1.0092 H   0  0  0  1  0  0  0  0  0  0  0  0
   -8.7494    5.5254    1.0372 H   0  0  0  1  0  0  0  0  0  0  0  0
   -6.3597    0.9914   -1.0728 H   0  0  0  1  0  0  0  0  0  0  0  0
   -5.5608    2.5432   -1.1623 H   0  0  0  1  0  0  0  0  0  0  0  0
   -2.9868   -2.6035    0.3643 H   0  0  0  1  0  0  0  0  0  0  0  0
   -1.9895   -1.8486    1.5848 H   0  0  0  1  0  0  0  0  0  0  0  0
    1.1554    3.5053    0.6355 H   0  0  0  1  0  0  0  0  0  0  0  0
    1.0916    0.8505   -1.6573 H   0  0  0  1  0  0  0  0  0  0  0  0
    1.8536   -0.1037   -0.4071 H   0  0  0  1  0  0  0  0  0  0  0  0
   -0.4314    0.3567    1.2053 H   0  0  0  1  0  0  0  0  0  0  0  0
    3.9881    0.1330   -1.5349 H   0  0  0  1  0  0  0  0  0  0  0  0
    3.2163    1.0729   -2.7899 H   0  0  0  1  0  0  0  0  0  0  0  0
   -0.5964    2.5140   -0.7488 H   0  0  0  1  0  0  0  0  0  0  0  0
    1.7938   -0.8823   -3.2940 H   0  0  0  1  0  0  0  0  0  0  0  0
    2.7265   -1.8040   -2.1387 H   0  0  0  1  0  0  0  0  0  0  0  0
   -1.2264   -2.0260   -1.3259 H   0  0  0  1  0  0  0  0  0  0  0  0
    0.8863   -2.4237   -0.6028 H   0  0  0  1  0  0  0  0  0  0  0  0
    0.9793   -3.1676    1.7997 H   0  0  0  1  0  0  0  0  0  0  0  0
   -0.3285   -2.0608    2.1446 H   0  0  0  1  0  0  0  0  0  0  0  0
    3.9881   -2.3735   -3.8939 H   0  0  0  1  0  0  0  0  0  0  0  0
    4.6653   -0.7691   -3.7529 H   0  0  0  1  0  0  0  0  0  0  0  0
    3.3625   -1.0721   -4.8776 H   0  0  0  1  0  0  0  0  0  0  0  0
    1.3354   -0.7942    2.9267 H   0  0  0  1  0  0  0  0  0  0  0  0
    1.4746   -0.3303    1.2475 H   0  0  0  1  0  0  0  0  0  0  0  0
    3.2103   -2.0112    0.9451 H   0  0  0  1  0  0  0  0  0  0  0  0
    3.0890   -2.4234    2.6391 H   0  0  0  1  0  0  0  0  0  0  0  0
  1 34  1  0  0  0  0
  2  4  1  0  0  0  0
  3  4  1  0  0  0  0
  4  5  1  0  0  0  0
  4 32  1  0  0  0  0
  6 10  1  0  0  0  0
  6 26  1  0  0  0  0
  6 42  1  0  0  0  0
  7  8  1  0  0  0  0
  7  9  2  0  0  0  0
  7 13  1  0  0  0  0
  8 43  1  0  0  0  0
  8 44  1  0  0  0  0
  8 45  1  0  0  0  0
 10 46  1  0  0  0  0
 10 47  1  0  0  0  0
 10 48  1  0  0  0  0
 11 27  1  0  0  0  0
 11 49  1  0  0  0  0
 12 26  2  0  0  0  0
 13 23  1  0  0  0  0
 13 50  1  0  0  0  0
 14 41  1  0  0  0  0
 15 24  1  0  0  0  0
 15 32  4  0  0  0  0
 15 34  4  0  0  0  0
 16 41  2  0  0  0  0
 17 18  1  0  0  0  0
 17 20  1  0  0  0  0
 17 51  1  0  0  0  0
 17 52  1  0  0  0  0
 18 23  1  0  0  0  0
 18 53  1  0  0  0  0
 18 54  1  0  0  0  0
 19 21  4  0  0  0  0
 19 29  1  0  0  0  0
 19 32  4  0  0  0  0
 20 24  1  0  0  0  0
 20 55  1  0  0  0  0
 20 56  1  0  0  0  0
 21 25  1  0  0  0  0
 21 34  4  0  0  0  0
 22 27  1  0  0  0  0
 22 28  1  0  0  0  0
 22 57  1  0  0  0  0
 22 58  1  0  0  0  0
 23 26  1  0  0  0  0
 23 59  1  0  0  0  0
 24 60  1  0  0  0  0
 24 61  1  0  0  0  0
 25 35  1  0  0  0  0
 25 62  1  0  0  0  0
 25 63  1  0  0  0  0
 27 31  1  0  0  0  0
 27 64  1  0  0  0  0
 28 30  1  0  0  0  0
 28 65  1  0  0  0  0
 28 66  1  0  0  0  0
 29 31  2  0  0  0  0
 29 67  1  0  0  0  0
 30 33  1  0  0  0  0
 30 68  1  0  0  0  0
 30 69  1  0  0  0  0
 31 70  1  0  0  0  0
 33 38  1  0  0  0  0
 33 71  1  0  0  0  0
 33 72  1  0  0  0  0
 35 36  2  0  0  0  0
 35 73  1  0  0  0  0
 36 37  1  0  0  0  0
 36 74  1  0  0  0  0
 37 39  1  0  0  0  0
 37 75  1  0  0  0  0
 37 76  1  0  0  0  0
 38 77  1  0  0  0  0
 38 78  1  0  0  0  0
 38 79  1  0  0  0  0
 39 40  1  0  0  0  0
 39 80  1  0  0  0  0
 39 81  1  0  0  0  0
 40 41  1  0  0  0  0
 40 82  1  0  0  0  0
 40 83  1  0  0  0  0
M  END
> <ConfClashScore>
0 

> <ConfOneFourInteractionScore>
-0.988142 

> <ConfScore>
0.113352 

> <ConfScorePBest>
0.00356172 

> <ConfTolerance>
1.97718 

$$$$
9548876
  PyMOL2.2          3D                             0

 83 83  0  0  0  0  0  0  0  0999 V2000
   -5.0179   -1.0366   -0.0842 H   0  0  0  1  0  0  0  0  0  0  0  0
   -3.2059    3.4656   -1.1598 H   0  0  0  1  0  0  0  0  0  0  0  0
   -2.2370    3.5003    0.2936 H   0  0  0  1  0  0  0  0  0  0  0  0
   -3.1691    3.1861   -0.1277 C   0  0  0  1  0  0  0  0  0  0  0  0
   -3.9747    3.6552    0.3976 H   0  0  0  1  0  0  0  0  0  0  0  0
   -7.4206    4.0004   -6.9761 N   0  0  0  1  0  0  0  0  0  0  0  0
   -9.9180    3.1038   -3.0603 C   0  0  0  1  0  0  0  0  0  0  0  0
  -11.1150    2.3505   -2.5273 C   0  0  0  1  0  0  0  0  0  0  0  0
   -9.4761    4.0915   -2.4793 O   0  0  0  1  0  0  0  0  0  0  0  0
   -7.2829    3.8237   -8.4140 C   0  0  0  1  0  0  0  0  0  0  0  0
    1.9555    1.6707    0.6392 O   0  0  0  1  0  0  0  0  0  0  0  0
   -8.7399    2.1934   -6.8507 O   0  0  0  1  0  0  0  0  0  0  0  0
   -9.3839    2.6229   -4.1942 N   0  0  0  1  0  0  0  0  0  0  0  0
   -4.5632   -7.4460   -1.0097 O   0  5  0  1  0  0  0  0  0  0  0  0
   -4.4769    1.0539   -0.1831 N   0  0  0  1  0  0  0  0  0  0  0  0
   -2.3569   -7.4556   -1.5636 O   0  0  0  1  0  0  0  0  0  0  0  0
   -7.0339    2.5987   -2.6286 C   0  0  0  1  0  0  0  0  0  0  0  0
   -6.9385    2.7286   -4.1411 C   0  0  0  1  0  0  0  0  0  0  0  0
   -2.3235    0.7562    0.2800 C   0  0  0  1  0  0  0  0  0  0  0  0
   -5.8481    1.9201   -2.0886 C   0  0  0  1  0  0  0  0  0  0  0  0
   -2.9522   -0.4975    0.2790 C   0  0  0  1  0  0  0  0  0  0  0  0
    1.4519    3.9470   -0.0446 C   0  0  0  1  0  0  0  0  0  0  0  0
   -8.2167    3.2680   -4.7850 C   0  0  0  1  0  0  0  0  0  0  0  0
   -5.7275    1.6871   -0.6029 C   0  0  0  1  0  0  0  0  0  0  0  0
   -2.2878   -1.8273    0.5464 C   0  0  0  1  0  0  0  0  0  0  0  0
   -8.1727    3.1246   -6.3034 C   0  0  0  1  0  0  0  0  0  0  0  0
    0.9888    2.6938    0.7222 C   0  0  0  1  0  0  0  0  0  0  0  0
    1.9007    3.5853   -1.4387 C   0  0  0  1  0  0  0  0  0  0  0  0
   -0.9192    1.0575    0.5306 C   0  0  0  1  0  0  0  0  0  0  0  0
    2.2186    4.7514   -2.3416 C   0  0  0  1  0  0  0  0  0  0  0  0
   -0.3276    2.1740    0.2531 C   0  0  0  1  0  0  0  0  0  0  0  0
   -3.2939    1.7061   -0.0084 C   0  0  0  1  0  0  0  0  0  0  0  0
    2.9465    4.3516   -3.6011 C   0  0  0  1  0  0  0  0  0  0  0  0
   -4.2883   -0.2992   -0.0104 C   0  0  0  1  0  0  0  0  0  0  0  0
   -2.8513   -2.5089    1.7528 C   0  0  0  1  0  0  0  0  0  0  0  0
   -3.8748   -3.3256    1.7416 C   0  0  0  1  0  0  0  0  0  0  0  0
   -4.6693   -3.6351    0.5020 C   0  0  0  1  0  0  0  0  0  0  0  0
    3.2333    5.4806   -4.5775 C   0  0  0  1  0  0  0  0  0  0  0  0
   -4.6592   -5.0610    0.0035 C   0  0  0  1  0  0  0  0  0  0  0  0
   -3.3217   -5.4857   -0.5804 C   0  0  0  1  0  0  0  0  0  0  0  0
   -3.3299   -6.8806   -1.1042 C   0  0  0  1  0  0  0  0  0  0  0  0
   -6.9743    4.7406   -6.5143 H   0  0  0  1  0  0  0  0  0  0  0  0
  -11.7818    3.0344   -2.0451 H   0  0  0  1  0  0  0  0  0  0  0  0
  -10.7881    1.6148   -1.8224 H   0  0  0  1  0  0  0  0  0  0  0  0
  -11.6224    1.8688   -3.3368 H   0  0  0  1  0  0  0  0  0  0  0  0
   -7.4646    2.8001   -8.6671 H   0  0  0  1  0  0  0  0  0  0  0  0
   -6.2918    4.0942   -8.7131 H   0  0  0  1  0  0  0  0  0  0  0  0
   -7.9910    4.4469   -8.9191 H   0  0  0  1  0  0  0  0  0  0  0  0
    2.3375    1.5196    1.5069 H   0  0  0  1  0  0  0  0  0  0  0  0
   -9.7789    1.8368   -4.6258 H   0  0  0  1  0  0  0  0  0  0  0  0
   -7.9064    2.0317   -2.3795 H   0  0  0  1  0  0  0  0  0  0  0  0
   -7.1067    3.5748   -2.1965 H   0  0  0  1  0  0  0  0  0  0  0  0
   -6.7331    1.7624   -4.5523 H   0  0  0  1  0  0  0  0  0  0  0  0
   -6.1341    3.3945   -4.3743 H   0  0  0  1  0  0  0  0  0  0  0  0
   -4.9988    2.5019   -2.3805 H   0  0  0  1  0  0  0  0  0  0  0  0
   -5.8010    0.9594   -2.5573 H   0  0  0  1  0  0  0  0  0  0  0  0
    2.2676    4.3982    0.4806 H   0  0  0  1  0  0  0  0  0  0  0  0
    0.6395    4.6406   -0.1064 H   0  0  0  1  0  0  0  0  0  0  0  0
   -8.2667    4.3139   -4.5650 H   0  0  0  1  0  0  0  0  0  0  0  0
   -5.8035    2.6337   -0.1099 H   0  0  0  1  0  0  0  0  0  0  0  0
   -6.5380    1.0590   -0.2972 H   0  0  0  1  0  0  0  0  0  0  0  0
   -1.2415   -1.6647    0.7001 H   0  0  0  1  0  0  0  0  0  0  0  0
   -2.4297   -2.4604   -0.3044 H   0  0  0  1  0  0  0  0  0  0  0  0
    0.8744    2.9766    1.7478 H   0  0  0  1  0  0  0  0  0  0  0  0
    1.1206    3.0155   -1.8987 H   0  0  0  1  0  0  0  0  0  0  0  0
    2.7814    2.9833   -1.3557 H   0  0  0  1  0  0  0  0  0  0  0  0
   -0.3438    0.3109    0.9701 H   0  0  0  1  0  0  0  0  0  0  0  0
    2.8310    5.4422   -1.8006 H   0  0  0  1  0  0  0  0  0  0  0  0
    1.3007    5.2274   -2.6168 H   0  0  0  1  0  0  0  0  0  0  0  0
   -0.8471    2.8019   -0.3930 H   0  0  0  1  0  0  0  0  0  0  0  0
    2.3513    3.6209   -4.1078 H   0  0  0  1  0  0  0  0  0  0  0  0
    3.8816    3.9159   -3.3171 H   0  0  0  1  0  0  0  0  0  0  0  0
   -2.3963   -2.3200    2.6687 H   0  0  0  1  0  0  0  0  0  0  0  0
   -4.1521   -3.7829    2.6336 H   0  0  0  1  0  0  0  0  0  0  0  0
   -4.2883   -3.0181   -0.2848 H   0  0  0  1  0  0  0  0  0  0  0  0
   -5.6875   -3.3725    0.7005 H   0  0  0  1  0  0  0  0  0  0  0  0
    2.5788    6.3026   -4.3752 H   0  0  0  1  0  0  0  0  0  0  0  0
    3.0738    5.1359   -5.5778 H   0  0  0  1  0  0  0  0  0  0  0  0
    4.2490    5.7982   -4.4668 H   0  0  0  1  0  0  0  0  0  0  0  0
   -5.4074   -5.1606   -0.7548 H   0  0  0  1  0  0  0  0  0  0  0  0
   -4.8926   -5.7085    0.8228 H   0  0  0  1  0  0  0  0  0  0  0  0
   -2.5776   -5.4138    0.1851 H   0  0  0  1  0  0  0  0  0  0  0  0
   -3.0742   -4.8222   -1.3826 H   0  0  0  1  0  0  0  0  0  0  0  0
  1 34  1  0  0  0  0
  2  4  1  0  0  0  0
  3  4  1  0  0  0  0
  4  5  1  0  0  0  0
  4 32  1  0  0  0  0
  6 10  1  0  0  0  0
  6 26  1  0  0  0  0
  6 42  1  0  0  0  0
  7  8  1  0  0  0  0
  7  9  2  0  0  0  0
  7 13  1  0  0  0  0
  8 43  1  0  0  0  0
  8 44  1  0  0  0  0
  8 45  1  0  0  0  0
 10 46  1  0  0  0  0
 10 47  1  0  0  0  0
 10 48  1  0  0  0  0
 11 27  1  0  0  0  0
 11 49  1  0  0  0  0
 12 26  2  0  0  0  0
 13 23  1  0  0  0  0
 13 50  1  0  0  0  0
 14 41  1  0  0  0  0
 15 24  1  0  0  0  0
 15 32  4  0  0  0  0
 15 34  4  0  0  0  0
 16 41  2  0  0  0  0
 17 18  1  0  0  0  0
 17 20  1  0  0  0  0
 17 51  1  0  0  0  0
 17 52  1  0  0  0  0
 18 23  1  0  0  0  0
 18 53  1  0  0  0  0
 18 54  1  0  0  0  0
 19 21  4  0  0  0  0
 19 29  1  0  0  0  0
 19 32  4  0  0  0  0
 20 24  1  0  0  0  0
 20 55  1  0  0  0  0
 20 56  1  0  0  0  0
 21 25  1  0  0  0  0
 21 34  4  0  0  0  0
 22 27  1  0  0  0  0
 22 28  1  0  0  0  0
 22 57  1  0  0  0  0
 22 58  1  0  0  0  0
 23 26  1  0  0  0  0
 23 59  1  0  0  0  0
 24 60  1  0  0  0  0
 24 61  1  0  0  0  0
 25 35  1  0  0  0  0
 25 62  1  0  0  0  0
 25 63  1  0  0  0  0
 27 31  1  0  0  0  0
 27 64  1  0  0  0  0
 28 30  1  0  0  0  0
 28 65  1  0  0  0  0
 28 66  1  0  0  0  0
 29 31  2  0  0  0  0
 29 67  1  0  0  0  0
 30 33  1  0  0  0  0
 30 68  1  0  0  0  0
 30 69  1  0  0  0  0
 31 70  1  0  0  0  0
 33 38  1  0  0  0  0
 33 71  1  0  0  0  0
 33 72  1  0  0  0  0
 35 36  2  0  0  0  0
 35 73  1  0  0  0  0
 36 37  1  0  0  0  0
 36 74  1  0  0  0  0
 37 39  1  0  0  0  0
 37 75  1  0  0  0  0
 37 76  1  0  0  0  0
 38 77  1  0  0  0  0
 38 78  1  0  0  0  0
 38 79  1  0  0  0  0
 39 40  1  0  0  0  0
 39 80  1  0  0  0  0
 39 81  1  0  0  0  0
 40 41  1  0  0  0  0
 40 82  1  0  0  0  0
 40 83  1  0  0  0  0
M  END
> <ConfClashScore>
0 

> <ConfOneFourInteractionScore>
-0.995284 

> <ConfScore>
0.113847 

> <ConfScorePBest>
0.00353324 

> <ConfTolerance>
2.0356 

$$$$
9548876
  PyMOL2.2          3D                             0

 83 83  0  0  0  0  0  0  0  0999 V2000
   -4.9891   -1.0652   -0.1291 H   0  0  0  1  0  0  0  0  0  0  0  0
   -2.7760    3.5776    0.7768 H   0  0  0  1  0  0  0  0  0  0  0  0
   -4.1161    3.6367   -0.3427 H   0  0  0  1  0  0  0  0  0  0  0  0
   -3.1648    3.1901   -0.1417 C   0  0  0  1  0  0  0  0  0  0  0  0
   -2.4881    3.4168   -0.9390 H   0  0  0  1  0  0  0  0  0  0  0  0
   -5.0388    6.5128   -4.6563 N   0  0  0  1  0  0  0  0  0  0  0  0
   -7.2747    6.7783   -1.7400 C   0  0  0  1  0  0  0  0  0  0  0  0
   -8.4222    7.2530   -0.8971 C   0  0  0  1  0  0  0  0  0  0  0  0
   -6.2394    7.3991   -1.8910 O   0  0  0  1  0  0  0  0  0  0  0  0
   -4.6870    7.3064   -5.8243 C   0  0  0  1  0  0  0  0  0  0  0  0
    1.8109    1.1801    0.9092 O   0  0  0  1  0  0  0  0  0  0  0  0
   -7.1722    6.2036   -5.2682 O   0  0  0  1  0  0  0  0  0  0  0  0
   -7.4420    5.5979   -2.3430 N   0  0  0  1  0  0  0  0  0  0  0  0
    5.2270   -2.7153    2.5991 O   0  5  0  1  0  0  0  0  0  0  0  0
   -4.4888    1.0353   -0.2285 N   0  0  0  1  0  0  0  0  0  0  0  0
    5.0079   -1.4172    0.7440 O   0  0  0  1  0  0  0  0  0  0  0  0
   -6.9562    2.6758   -2.5029 C   0  0  0  1  0  0  0  0  0  0  0  0
   -6.8058    3.6239   -3.6666 C   0  0  0  1  0  0  0  0  0  0  0  0
   -2.3410    0.7846    0.2861 C   0  0  0  1  0  0  0  0  0  0  0  0
   -5.7010    2.6682   -1.6492 C   0  0  0  1  0  0  0  0  0  0  0  0
   -2.9439   -0.4817    0.2784 C   0  0  0  1  0  0  0  0  0  0  0  0
    1.7669    2.3912   -1.1305 C   0  0  0  1  0  0  0  0  0  0  0  0
   -6.4571    5.0546   -3.3025 C   0  0  0  1  0  0  0  0  0  0  0  0
   -5.7699    1.6940   -0.4856 C   0  0  0  1  0  0  0  0  0  0  0  0
   -2.2662   -1.7820    0.5663 C   0  0  0  1  0  0  0  0  0  0  0  0
   -6.2610    6.0017   -4.4825 C   0  0  0  1  0  0  0  0  0  0  0  0
    1.1778    2.2920    0.2788 C   0  0  0  1  0  0  0  0  0  0  0  0
    1.5357    1.1456   -1.9690 C   0  0  0  1  0  0  0  0  0  0  0  0
   -0.9297    1.0009    0.5834 C   0  0  0  1  0  0  0  0  0  0  0  0
    2.1693    1.2219   -3.3495 C   0  0  0  1  0  0  0  0  0  0  0  0
   -0.3079    2.1192    0.2952 C   0  0  0  1  0  0  0  0  0  0  0  0
   -3.3236    1.7127   -0.0305 C   0  0  0  1  0  0  0  0  0  0  0  0
    2.1982   -0.1134   -4.0735 C   0  0  0  1  0  0  0  0  0  0  0  0
   -4.2766   -0.3126   -0.0430 C   0  0  0  1  0  0  0  0  0  0  0  0
   -1.3318   -2.3676   -0.4410 C   0  0  0  1  0  0  0  0  0  0  0  0
   -0.1076   -2.7640   -0.1870 C   0  0  0  1  0  0  0  0  0  0  0  0
    0.7143   -2.4451    1.0332 C   0  0  0  1  0  0  0  0  0  0  0  0
    2.8776   -0.0480   -5.4308 C   0  0  0  1  0  0  0  0  0  0  0  0
    2.2129   -2.4485    0.7607 C   0  0  0  1  0  0  0  0  0  0  0  0
    3.0465   -2.0659    1.9727 C   0  0  0  1  0  0  0  0  0  0  0  0
    4.5072   -2.0132    1.6834 C   0  0  0  1  0  0  0  0  0  0  0  0
   -4.3556    6.3475   -3.9735 H   0  0  0  1  0  0  0  0  0  0  0  0
   -9.1377    6.4645   -0.7911 H   0  0  0  1  0  0  0  0  0  0  0  0
   -8.8863    8.0943   -1.3681 H   0  0  0  1  0  0  0  0  0  0  0  0
   -8.0609    7.5387    0.0686 H   0  0  0  1  0  0  0  0  0  0  0  0
   -3.6227    7.3315   -5.9317 H   0  0  0  1  0  0  0  0  0  0  0  0
   -5.0565    8.3032   -5.7025 H   0  0  0  1  0  0  0  0  0  0  0  0
   -5.1231    6.8681   -6.6976 H   0  0  0  1  0  0  0  0  0  0  0  0
    1.6977    1.2437    1.8603 H   0  0  0  1  0  0  0  0  0  0  0  0
   -8.2455    5.0740   -2.1424 H   0  0  0  1  0  0  0  0  0  0  0  0
   -7.1332    1.6884   -2.8753 H   0  0  0  1  0  0  0  0  0  0  0  0
   -7.7865    2.9854   -1.9031 H   0  0  0  1  0  0  0  0  0  0  0  0
   -7.7315    3.6366   -4.2031 H   0  0  0  1  0  0  0  0  0  0  0  0
   -6.0306    3.2469   -4.3007 H   0  0  0  1  0  0  0  0  0  0  0  0
   -5.5504    3.6530   -1.2587 H   0  0  0  1  0  0  0  0  0  0  0  0
   -4.8711    2.3988   -2.2686 H   0  0  0  1  0  0  0  0  0  0  0  0
    2.8214    2.5528   -1.0468 H   0  0  0  1  0  0  0  0  0  0  0  0
    1.3164    3.2240   -1.6288 H   0  0  0  1  0  0  0  0  0  0  0  0
   -5.5179    5.0147   -2.7915 H   0  0  0  1  0  0  0  0  0  0  0  0
   -6.0624    2.2297    0.3932 H   0  0  0  1  0  0  0  0  0  0  0  0
   -6.5016    0.9456   -0.7079 H   0  0  0  1  0  0  0  0  0  0  0  0
   -3.0381   -2.5046    0.7305 H   0  0  0  1  0  0  0  0  0  0  0  0
   -1.7058   -1.6470    1.4677 H   0  0  0  1  0  0  0  0  0  0  0  0
    1.4204    3.1904    0.8070 H   0  0  0  1  0  0  0  0  0  0  0  0
    0.4812    1.0070   -2.0869 H   0  0  0  1  0  0  0  0  0  0  0  0
    1.9506    0.3062   -1.4511 H   0  0  0  1  0  0  0  0  0  0  0  0
   -0.3942    0.2368    1.0428 H   0  0  0  1  0  0  0  0  0  0  0  0
    3.1749    1.5715   -3.2424 H   0  0  0  1  0  0  0  0  0  0  0  0
    1.6108    1.9166   -3.9413 H   0  0  0  1  0  0  0  0  0  0  0  0
   -0.8913    2.9476    0.0605 H   0  0  0  1  0  0  0  0  0  0  0  0
    1.1907   -0.4450   -4.2141 H   0  0  0  1  0  0  0  0  0  0  0  0
    2.7245   -0.8183   -3.4643 H   0  0  0  1  0  0  0  0  0  0  0  0
   -1.6777   -2.4687   -1.4166 H   0  0  0  1  0  0  0  0  0  0  0  0
    0.3443   -3.3636   -0.9066 H   0  0  0  1  0  0  0  0  0  0  0  0
    0.5034   -3.1754    1.7862 H   0  0  0  1  0  0  0  0  0  0  0  0
    0.4349   -1.4751    1.3880 H   0  0  0  1  0  0  0  0  0  0  0  0
    2.3850   -0.7128   -6.1092 H   0  0  0  1  0  0  0  0  0  0  0  0
    3.9030   -0.3368   -5.3303 H   0  0  0  1  0  0  0  0  0  0  0  0
    2.8234    0.9515   -5.8087 H   0  0  0  1  0  0  0  0  0  0  0  0
    2.4164   -1.7512   -0.0249 H   0  0  0  1  0  0  0  0  0  0  0  0
    2.4987   -3.4314    0.4489 H   0  0  0  1  0  0  0  0  0  0  0  0
    2.8779   -2.7882    2.7439 H   0  0  0  1  0  0  0  0  0  0  0  0
    2.7315   -1.1012    2.3119 H   0  0  0  1  0  0  0  0  0  0  0  0
  1 34  1  0  0  0  0
  2  4  1  0  0  0  0
  3  4  1  0  0  0  0
  4  5  1  0  0  0  0
  4 32  1  0  0  0  0
  6 10  1  0  0  0  0
  6 26  1  0  0  0  0
  6 42  1  0  0  0  0
  7  8  1  0  0  0  0
  7  9  2  0  0  0  0
  7 13  1  0  0  0  0
  8 43  1  0  0  0  0
  8 44  1  0  0  0  0
  8 45  1  0  0  0  0
 10 46  1  0  0  0  0
 10 47  1  0  0  0  0
 10 48  1  0  0  0  0
 11 27  1  0  0  0  0
 11 49  1  0  0  0  0
 12 26  2  0  0  0  0
 13 23  1  0  0  0  0
 13 50  1  0  0  0  0
 14 41  1  0  0  0  0
 15 24  1  0  0  0  0
 15 32  4  0  0  0  0
 15 34  4  0  0  0  0
 16 41  2  0  0  0  0
 17 18  1  0  0  0  0
 17 20  1  0  0  0  0
 17 51  1  0  0  0  0
 17 52  1  0  0  0  0
 18 23  1  0  0  0  0
 18 53  1  0  0  0  0
 18 54  1  0  0  0  0
 19 21  4  0  0  0  0
 19 29  1  0  0  0  0
 19 32  4  0  0  0  0
 20 24  1  0  0  0  0
 20 55  1  0  0  0  0
 20 56  1  0  0  0  0
 21 25  1  0  0  0  0
 21 34  4  0  0  0  0
 22 27  1  0  0  0  0
 22 28  1  0  0  0  0
 22 57  1  0  0  0  0
 22 58  1  0  0  0  0
 23 26  1  0  0  0  0
 23 59  1  0  0  0  0
 24 60  1  0  0  0  0
 24 61  1  0  0  0  0
 25 35  1  0  0  0  0
 25 62  1  0  0  0  0
 25 63  1  0  0  0  0
 27 31  1  0  0  0  0
 27 64  1  0  0  0  0
 28 30  1  0  0  0  0
 28 65  1  0  0  0  0
 28 66  1  0  0  0  0
 29 31  2  0  0  0  0
 29 67  1  0  0  0  0
 30 33  1  0  0  0  0
 30 68  1  0  0  0  0
 30 69  1  0  0  0  0
 31 70  1  0  0  0  0
 33 38  1  0  0  0  0
 33 71  1  0  0  0  0
 33 72  1  0  0  0  0
 35 36  2  0  0  0  0
 35 73  1  0  0  0  0
 36 37  1  0  0  0  0
 36 74  1  0  0  0  0
 37 39  1  0  0  0  0
 37 75  1  0  0  0  0
 37 76  1  0  0  0  0
 38 77  1  0  0  0  0
 38 78  1  0  0  0  0
 38 79  1  0  0  0  0
 39 40  1  0  0  0  0
 39 80  1  0  0  0  0
 39 81  1  0  0  0  0
 40 41  1  0  0  0  0
 40 82  1  0  0  0  0
 40 83  1  0  0  0  0
M  END
> <ConfClashScore>
0 

> <ConfOneFourInteractionScore>
-0.990858 

> <ConfScore>
0.113963 

> <ConfScorePBest>
0.00350476 

> <ConfTolerance>
2.1682 

$$$$
9548876
  PyMOL2.2          3D                             0

 83 83  0  0  0  0  0  0  0  0999 V2000
   -5.0108   -1.0398   -0.1134 H   0  0  0  1  0  0  0  0  0  0  0  0
   -2.2444    3.4300   -0.6130 H   0  0  0  1  0  0  0  0  0  0  0  0
   -3.1885    3.6237    0.8443 H   0  0  0  1  0  0  0  0  0  0  0  0
   -3.1684    3.1859   -0.1318 C   0  0  0  1  0  0  0  0  0  0  0  0
   -3.9834    3.5671   -0.7110 H   0  0  0  1  0  0  0  0  0  0  0  0
   -2.3816    2.7304   -4.2729 N   0  0  0  1  0  0  0  0  0  0  0  0
   -5.2370    3.7643   -7.4666 C   0  0  0  1  0  0  0  0  0  0  0  0
   -5.6935    3.4657   -8.8814 C   0  0  0  1  0  0  0  0  0  0  0  0
   -5.0588    4.9199   -7.0838 O   0  0  0  1  0  0  0  0  0  0  0  0
   -1.1291    2.1527   -3.8088 C   0  0  0  1  0  0  0  0  0  0  0  0
    1.4457    2.5386    0.4984 O   0  0  0  1  0  0  0  0  0  0  0  0
   -2.9984    0.9516   -5.5148 O   0  0  0  1  0  0  0  0  0  0  0  0
   -5.0453    2.6957   -6.6782 N   0  0  0  1  0  0  0  0  0  0  0  0
   -7.4483   -0.8924    6.2633 O   0  5  0  1  0  0  0  0  0  0  0  0
   -4.4720    1.0516   -0.2048 N   0  0  0  1  0  0  0  0  0  0  0  0
   -8.3209   -0.2236    4.2719 O   0  0  0  1  0  0  0  0  0  0  0  0
   -5.1755    2.2800   -2.9465 C   0  0  0  1  0  0  0  0  0  0  0  0
   -5.6539    2.1679   -4.3860 C   0  0  0  1  0  0  0  0  0  0  0  0
   -2.3241    0.7573    0.2857 C   0  0  0  1  0  0  0  0  0  0  0  0
   -6.1062    1.5275   -2.0095 C   0  0  0  1  0  0  0  0  0  0  0  0
   -2.9508   -0.4974    0.2763 C   0  0  0  1  0  0  0  0  0  0  0  0
    2.3888    0.3210    0.7421 C   0  0  0  1  0  0  0  0  0  0  0  0
   -4.5670    2.7487   -5.3048 C   0  0  0  1  0  0  0  0  0  0  0  0
   -5.7445    1.6899   -0.5429 C   0  0  0  1  0  0  0  0  0  0  0  0
   -2.2877   -1.8263    0.5518 C   0  0  0  1  0  0  0  0  0  0  0  0
   -3.2256    2.0625   -5.0645 C   0  0  0  1  0  0  0  0  0  0  0  0
    1.4684    1.2388   -0.0477 C   0  0  0  1  0  0  0  0  0  0  0  0
    3.8319    0.7164    0.5495 C   0  0  0  1  0  0  0  0  0  0  0  0
   -0.9237    1.0608    0.5544 C   0  0  0  1  0  0  0  0  0  0  0  0
    4.7923   -0.1061    1.3725 C   0  0  0  1  0  0  0  0  0  0  0  0
    0.1000    0.6518   -0.1642 C   0  0  0  1  0  0  0  0  0  0  0  0
   -3.2923    1.7057   -0.0147 C   0  0  0  1  0  0  0  0  0  0  0  0
    6.2668    0.1475    1.1046 C   0  0  0  1  0  0  0  0  0  0  0  0
   -4.2833   -0.3012   -0.0301 C   0  0  0  1  0  0  0  0  0  0  0  0
   -3.2309   -2.9286    0.9160 C   0  0  0  1  0  0  0  0  0  0  0  0
   -4.2409   -2.8606    1.7466 C   0  0  0  1  0  0  0  0  0  0  0  0
   -4.4296   -1.7326    2.7254 C   0  0  0  1  0  0  0  0  0  0  0  0
    7.1883   -0.5736    2.0748 C   0  0  0  1  0  0  0  0  0  0  0  0
   -5.7615   -1.7977    3.4613 C   0  0  0  1  0  0  0  0  0  0  0  0
   -5.9629   -0.6566    4.4449 C   0  0  0  1  0  0  0  0  0  0  0  0
   -7.3622   -0.5593    4.9475 C   0  0  0  1  0  0  0  0  0  0  0  0
   -2.6141    3.6410   -3.9951 H   0  0  0  1  0  0  0  0  0  0  0  0
   -5.2730    4.1858   -9.5519 H   0  0  0  1  0  0  0  0  0  0  0  0
   -6.7613    3.5150   -8.9292 H   0  0  0  1  0  0  0  0  0  0  0  0
   -5.3683    2.4855   -9.1614 H   0  0  0  1  0  0  0  0  0  0  0  0
   -1.2525    1.0993   -3.6671 H   0  0  0  1  0  0  0  0  0  0  0  0
   -0.8492    2.6068   -2.8813 H   0  0  0  1  0  0  0  0  0  0  0  0
   -0.3647    2.3272   -4.5369 H   0  0  0  1  0  0  0  0  0  0  0  0
    2.2076    3.0313    0.1848 H   0  0  0  1  0  0  0  0  0  0  0  0
   -5.2423    1.8130   -7.0556 H   0  0  0  1  0  0  0  0  0  0  0  0
   -5.1521    3.3117   -2.6639 H   0  0  0  1  0  0  0  0  0  0  0  0
   -4.1916    1.8663   -2.8706 H   0  0  0  1  0  0  0  0  0  0  0  0
   -6.5629    2.7189   -4.5086 H   0  0  0  1  0  0  0  0  0  0  0  0
   -5.8232    1.1403   -4.6315 H   0  0  0  1  0  0  0  0  0  0  0  0
   -6.0667    0.4870   -2.2554 H   0  0  0  1  0  0  0  0  0  0  0  0
   -7.1017    1.8915   -2.1556 H   0  0  0  1  0  0  0  0  0  0  0  0
    2.2531   -0.6857    0.4061 H   0  0  0  1  0  0  0  0  0  0  0  0
    2.1427    0.3870    1.7813 H   0  0  0  1  0  0  0  0  0  0  0  0
   -4.4473    3.7775   -5.0361 H   0  0  0  1  0  0  0  0  0  0  0  0
   -5.6739    2.7342   -0.3208 H   0  0  0  1  0  0  0  0  0  0  0  0
   -6.5175    1.2498    0.0517 H   0  0  0  1  0  0  0  0  0  0  0  0
   -1.5998   -1.6947    1.3607 H   0  0  0  1  0  0  0  0  0  0  0  0
   -1.7532   -2.1211   -0.3271 H   0  0  0  1  0  0  0  0  0  0  0  0
    1.8665    1.2992   -1.0390 H   0  0  0  1  0  0  0  0  0  0  0  0
    3.9419    1.7441    0.8264 H   0  0  0  1  0  0  0  0  0  0  0  0
    4.0816    0.5962   -0.4839 H   0  0  0  1  0  0  0  0  0  0  0  0
   -0.7160    1.6511    1.3850 H   0  0  0  1  0  0  0  0  0  0  0  0
    4.5944   -1.1389    1.1753 H   0  0  0  1  0  0  0  0  0  0  0  0
    4.6042    0.1029    2.4049 H   0  0  0  1  0  0  0  0  0  0  0  0
   -0.0512   -0.1181   -0.8468 H   0  0  0  1  0  0  0  0  0  0  0  0
    6.4496    1.1990    1.1810 H   0  0  0  1  0  0  0  0  0  0  0  0
    6.4931   -0.1832    0.1124 H   0  0  0  1  0  0  0  0  0  0  0  0
   -3.0667   -3.8488    0.4600 H   0  0  0  1  0  0  0  0  0  0  0  0
   -4.9475   -3.6235    1.7293 H   0  0  0  1  0  0  0  0  0  0  0  0
   -4.3805   -0.8066    2.1914 H   0  0  0  1  0  0  0  0  0  0  0  0
   -3.6399   -1.7715    3.4463 H   0  0  0  1  0  0  0  0  0  0  0  0
    7.6730    0.1419    2.7057 H   0  0  0  1  0  0  0  0  0  0  0  0
    7.9251   -1.1219    1.5259 H   0  0  0  1  0  0  0  0  0  0  0  0
    6.6152   -1.2483    2.6759 H   0  0  0  1  0  0  0  0  0  0  0  0
   -5.8069   -2.7215    3.9994 H   0  0  0  1  0  0  0  0  0  0  0  0
   -6.5502   -1.7661    2.7389 H   0  0  0  1  0  0  0  0  0  0  0  0
   -5.7117    0.2620    3.9570 H   0  0  0  1  0  0  0  0  0  0  0  0
   -5.3109   -0.8074    5.2798 H   0  0  0  1  0  0  0  0  0  0  0  0
  1 34  1  0  0  0  0
  2  4  1  0  0  0  0
  3  4  1  0  0  0  0
  4  5  1  0  0  0  0
  4 32  1  0  0  0  0
  6 10  1  0  0  0  0
  6 26  1  0  0  0  0
  6 42  1  0  0  0  0
  7  8  1  0  0  0  0
  7  9  2  0  0  0  0
  7 13  1  0  0  0  0
  8 43  1  0  0  0  0
  8 44  1  0  0  0  0
  8 45  1  0  0  0  0
 10 46  1  0  0  0  0
 10 47  1  0  0  0  0
 10 48  1  0  0  0  0
 11 27  1  0  0  0  0
 11 49  1  0  0  0  0
 12 26  2  0  0  0  0
 13 23  1  0  0  0  0
 13 50  1  0  0  0  0
 14 41  1  0  0  0  0
 15 24  1  0  0  0  0
 15 32  4  0  0  0  0
 15 34  4  0  0  0  0
 16 41  2  0  0  0  0
 17 18  1  0  0  0  0
 17 20  1  0  0  0  0
 17 51  1  0  0  0  0
 17 52  1  0  0  0  0
 18 23  1  0  0  0  0
 18 53  1  0  0  0  0
 18 54  1  0  0  0  0
 19 21  4  0  0  0  0
 19 29  1  0  0  0  0
 19 32  4  0  0  0  0
 20 24  1  0  0  0  0
 20 55  1  0  0  0  0
 20 56  1  0  0  0  0
 21 25  1  0  0  0  0
 21 34  4  0  0  0  0
 22 27  1  0  0  0  0
 22 28  1  0  0  0  0
 22 57  1  0  0  0  0
 22 58  1  0  0  0  0
 23 26  1  0  0  0  0
 23 59  1  0  0  0  0
 24 60  1  0  0  0  0
 24 61  1  0  0  0  0
 25 35  1  0  0  0  0
 25 62  1  0  0  0  0
 25 63  1  0  0  0  0
 27 31  1  0  0  0  0
 27 64  1  0  0  0  0
 28 30  1  0  0  0  0
 28 65  1  0  0  0  0
 28 66  1  0  0  0  0
 29 31  2  0  0  0  0
 29 67  1  0  0  0  0
 30 33  1  0  0  0  0
 30 68  1  0  0  0  0
 30 69  1  0  0  0  0
 31 70  1  0  0  0  0
 33 38  1  0  0  0  0
 33 71  1  0  0  0  0
 33 72  1  0  0  0  0
 35 36  2  0  0  0  0
 35 73  1  0  0  0  0
 36 37  1  0  0  0  0
 36 74  1  0  0  0  0
 37 39  1  0  0  0  0
 37 75  1  0  0  0  0
 37 76  1  0  0  0  0
 38 77  1  0  0  0  0
 38 78  1  0  0  0  0
 38 79  1  0  0  0  0
 39 40  1  0  0  0  0
 39 80  1  0  0  0  0
 39 81  1  0  0  0  0
 40 41  1  0  0  0  0
 40 82  1  0  0  0  0
 40 83  1  0  0  0  0
M  END
> <ConfClashScore>
0 

> <ConfOneFourInteractionScore>
-0.992064 

> <ConfScore>
0.114618 

> <ConfScorePBest>
0.00347628 

> <ConfTolerance>
2.26279 

$$$$
9548876
  PyMOL2.2          3D                             0

 83 83  0  0  0  0  0  0  0  0999 V2000
   -5.0144   -1.0388   -0.1098 H   0  0  0  1  0  0  0  0  0  0  0  0
   -3.4747    3.6468    0.7820 H   0  0  0  1  0  0  0  0  0  0  0  0
   -3.8022    3.5345   -0.9305 H   0  0  0  1  0  0  0  0  0  0  0  0
   -3.1742    3.1878   -0.1366 C   0  0  0  1  0  0  0  0  0  0  0  0
   -2.1571    3.4449   -0.3474 H   0  0  0  1  0  0  0  0  0  0  0  0
   -4.2451    0.6642   -6.6281 N   0  0  0  1  0  0  0  0  0  0  0  0
   -1.6458    2.2989   -6.7926 C   0  0  0  1  0  0  0  0  0  0  0  0
   -1.2874    3.2579   -7.8929 C   0  0  0  1  0  0  0  0  0  0  0  0
   -1.1169    1.2079   -6.6812 O   0  0  0  1  0  0  0  0  0  0  0  0
   -4.8069   -0.4203   -7.4193 C   0  0  0  1  0  0  0  0  0  0  0  0
    1.8774    2.6913   -0.4097 O   0  0  0  1  0  0  0  0  0  0  0  0
   -3.5632   -0.5507   -4.8546 O   0  0  0  1  0  0  0  0  0  0  0  0
   -2.5760    2.6505   -5.9036 N   0  0  0  1  0  0  0  0  0  0  0  0
   -3.8539   -5.8798    6.3327 O   0  5  0  1  0  0  0  0  0  0  0  0
   -4.4767    1.0527   -0.2051 N   0  0  0  1  0  0  0  0  0  0  0  0
   -2.6889   -6.7068    4.5262 O   0  0  0  1  0  0  0  0  0  0  0  0
   -4.6242    1.7111   -2.8171 C   0  0  0  1  0  0  0  0  0  0  0  0
   -4.1135    2.5319   -3.9857 C   0  0  0  1  0  0  0  0  0  0  0  0
   -2.3285    0.7603    0.2849 C   0  0  0  1  0  0  0  0  0  0  0  0
   -5.6622    2.3455   -1.9115 C   0  0  0  1  0  0  0  0  0  0  0  0
   -2.9545   -0.4947    0.2780 C   0  0  0  1  0  0  0  0  0  0  0  0
    1.6023    3.2040    1.8930 C   0  0  0  1  0  0  0  0  0  0  0  0
   -3.0772    1.7940   -4.8391 C   0  0  0  1  0  0  0  0  0  0  0  0
   -5.7497    1.6898   -0.5439 C   0  0  0  1  0  0  0  0  0  0  0  0
   -2.2405   -1.7948    0.5635 C   0  0  0  1  0  0  0  0  0  0  0  0
   -3.6765    0.5203   -5.4277 C   0  0  0  1  0  0  0  0  0  0  0  0
    1.2437    2.2327    0.7634 C   0  0  0  1  0  0  0  0  0  0  0  0
    3.0928    3.2706    2.1795 C   0  0  0  1  0  0  0  0  0  0  0  0
   -0.9166    1.0108    0.5603 C   0  0  0  1  0  0  0  0  0  0  0  0
    3.7222    1.9069    2.4193 C   0  0  0  1  0  0  0  0  0  0  0  0
   -0.2416    2.1340    0.6171 C   0  0  0  1  0  0  0  0  0  0  0  0
   -3.2973    1.7077   -0.0167 C   0  0  0  1  0  0  0  0  0  0  0  0
    4.1313    1.1985    1.1382 C   0  0  0  1  0  0  0  0  0  0  0  0
   -4.2873   -0.2997   -0.0281 C   0  0  0  1  0  0  0  0  0  0  0  0
   -2.8588   -2.9501   -0.1577 C   0  0  0  1  0  0  0  0  0  0  0  0
   -3.5528   -3.9035    0.4117 C   0  0  0  1  0  0  0  0  0  0  0  0
   -4.1360   -3.8961    1.7994 C   0  0  0  1  0  0  0  0  0  0  0  0
    4.6905   -0.1953    1.3726 C   0  0  0  1  0  0  0  0  0  0  0  0
   -3.4918   -4.9218    2.7228 C   0  0  0  1  0  0  0  0  0  0  0  0
   -3.9088   -4.7698    4.1765 C   0  0  0  1  0  0  0  0  0  0  0  0
   -3.4265   -5.8830    5.0416 C   0  0  0  1  0  0  0  0  0  0  0  0
   -4.2872    1.5682   -7.0041 H   0  0  0  1  0  0  0  0  0  0  0  0
   -0.2248    3.2780   -8.0171 H   0  0  0  1  0  0  0  0  0  0  0  0
   -1.6352    4.2375   -7.6393 H   0  0  0  1  0  0  0  0  0  0  0  0
   -1.7470    2.9409   -8.8057 H   0  0  0  1  0  0  0  0  0  0  0  0
   -4.0236   -1.0820   -7.7253 H   0  0  0  1  0  0  0  0  0  0  0  0
   -5.2909   -0.0170   -8.2842 H   0  0  0  1  0  0  0  0  0  0  0  0
   -5.5191   -0.9595   -6.8303 H   0  0  0  1  0  0  0  0  0  0  0  0
    2.7940    2.9021   -0.2174 H   0  0  0  1  0  0  0  0  0  0  0  0
   -2.9501    3.5537   -5.9724 H   0  0  0  1  0  0  0  0  0  0  0  0
   -3.7800    1.4605   -2.2093 H   0  0  0  1  0  0  0  0  0  0  0  0
   -5.0537    0.8168   -3.2181 H   0  0  0  1  0  0  0  0  0  0  0  0
   -3.6642    3.4243   -3.6028 H   0  0  0  1  0  0  0  0  0  0  0  0
   -4.9446    2.7892   -4.6085 H   0  0  0  1  0  0  0  0  0  0  0  0
   -6.6182    2.2696   -2.3859 H   0  0  0  1  0  0  0  0  0  0  0  0
   -5.4107    3.3769   -1.7777 H   0  0  0  1  0  0  0  0  0  0  0  0
    1.0994    2.8893    2.7835 H   0  0  0  1  0  0  0  0  0  0  0  0
    1.2655    4.1820    1.6192 H   0  0  0  1  0  0  0  0  0  0  0  0
   -2.2628    1.5153   -4.2035 H   0  0  0  1  0  0  0  0  0  0  0  0
   -5.9786    2.4337    0.1904 H   0  0  0  1  0  0  0  0  0  0  0  0
   -6.5226    0.9500   -0.5558 H   0  0  0  1  0  0  0  0  0  0  0  0
   -2.2794   -1.9851    1.6157 H   0  0  0  1  0  0  0  0  0  0  0  0
   -1.2203   -1.7023    0.2547 H   0  0  0  1  0  0  0  0  0  0  0  0
    1.6208    1.2658    1.0237 H   0  0  0  1  0  0  0  0  0  0  0  0
    3.2441    3.8721    3.0514 H   0  0  0  1  0  0  0  0  0  0  0  0
    3.5791    3.7263    1.3425 H   0  0  0  1  0  0  0  0  0  0  0  0
   -0.3521    0.1563    0.7416 H   0  0  0  1  0  0  0  0  0  0  0  0
    3.0144    1.2926    2.9355 H   0  0  0  1  0  0  0  0  0  0  0  0
    4.5927    2.0373    3.0277 H   0  0  0  1  0  0  0  0  0  0  0  0
   -0.7792    3.0221    0.5559 H   0  0  0  1  0  0  0  0  0  0  0  0
    4.8798    1.7865    0.6495 H   0  0  0  1  0  0  0  0  0  0  0  0
    3.2718    1.1173    0.5061 H   0  0  0  1  0  0  0  0  0  0  0  0
   -2.7278   -2.9999   -1.1882 H   0  0  0  1  0  0  0  0  0  0  0  0
   -3.7191   -4.7586   -0.1565 H   0  0  0  1  0  0  0  0  0  0  0  0
   -5.1822   -4.1096    1.7303 H   0  0  0  1  0  0  0  0  0  0  0  0
   -3.9973   -2.9229    2.2219 H   0  0  0  1  0  0  0  0  0  0  0  0
    5.6867   -0.2502    0.9860 H   0  0  0  1  0  0  0  0  0  0  0  0
    4.0747   -0.9148    0.8746 H   0  0  0  1  0  0  0  0  0  0  0  0
    4.7037   -0.4022    2.4224 H   0  0  0  1  0  0  0  0  0  0  0  0
   -2.4291   -4.8133    2.6616 H   0  0  0  1  0  0  0  0  0  0  0  0
   -3.7707   -5.8999    2.3904 H   0  0  0  1  0  0  0  0  0  0  0  0
   -4.9774   -4.7408    4.2230 H   0  0  0  1  0  0  0  0  0  0  0  0
   -3.5100   -3.8502    4.5509 H   0  0  0  1  0  0  0  0  0  0  0  0
  1 34  1  0  0  0  0
  2  4  1  0  0  0  0
  3  4  1  0  0  0  0
  4  5  1  0  0  0  0
  4 32  1  0  0  0  0
  6 10  1  0  0  0  0
  6 26  1  0  0  0  0
  6 42  1  0  0  0  0
  7  8  1  0  0  0  0
  7  9  2  0  0  0  0
  7 13  1  0  0  0  0
  8 43  1  0  0  0  0
  8 44  1  0  0  0  0
  8 45  1  0  0  0  0
 10 46  1  0  0  0  0
 10 47  1  0  0  0  0
 10 48  1  0  0  0  0
 11 27  1  0  0  0  0
 11 49  1  0  0  0  0
 12 26  2  0  0  0  0
 13 23  1  0  0  0  0
 13 50  1  0  0  0  0
 14 41  1  0  0  0  0
 15 24  1  0  0  0  0
 15 32  4  0  0  0  0
 15 34  4  0  0  0  0
 16 41  2  0  0  0  0
 17 18  1  0  0  0  0
 17 20  1  0  0  0  0
 17 51  1  0  0  0  0
 17 52  1  0  0  0  0
 18 23  1  0  0  0  0
 18 53  1  0  0  0  0
 18 54  1  0  0  0  0
 19 21  4  0  0  0  0
 19 29  1  0  0  0  0
 19 32  4  0  0  0  0
 20 24  1  0  0  0  0
 20 55  1  0  0  0  0
 20 56  1  0  0  0  0
 21 25  1  0  0  0  0
 21 34  4  0  0  0  0
 22 27  1  0  0  0  0
 22 28  1  0  0  0  0
 22 57  1  0  0  0  0
 22 58  1  0  0  0  0
 23 26  1  0  0  0  0
 23 59  1  0  0  0  0
 24 60  1  0  0  0  0
 24 61  1  0  0  0  0
 25 35  1  0  0  0  0
 25 62  1  0  0  0  0
 25 63  1  0  0  0  0
 27 31  1  0  0  0  0
 27 64  1  0  0  0  0
 28 30  1  0  0  0  0
 28 65  1  0  0  0  0
 28 66  1  0  0  0  0
 29 31  2  0  0  0  0
 29 67  1  0  0  0  0
 30 33  1  0  0  0  0
 30 68  1  0  0  0  0
 30 69  1  0  0  0  0
 31 70  1  0  0  0  0
 33 38  1  0  0  0  0
 33 71  1  0  0  0  0
 33 72  1  0  0  0  0
 35 36  2  0  0  0  0
 35 73  1  0  0  0  0
 36 37  1  0  0  0  0
 36 74  1  0  0  0  0
 37 39  1  0  0  0  0
 37 75  1  0  0  0  0
 37 76  1  0  0  0  0
 38 77  1  0  0  0  0
 38 78  1  0  0  0  0
 38 79  1  0  0  0  0
 39 40  1  0  0  0  0
 39 80  1  0  0  0  0
 39 81  1  0  0  0  0
 40 41  1  0  0  0  0
 40 82  1  0  0  0  0
 40 83  1  0  0  0  0
M  END
> <ConfClashScore>
0.00013613 

> <ConfOneFourInteractionScore>
-0.975684 

> <ConfScore>
0.116287 

> <ConfScorePBest>
0.0034478 

> <ConfTolerance>
2.13382 

$$$$
9548876
  PyMOL2.2          3D                             0

 83 83  0  0  0  0  0  0  0  0999 V2000
   -5.0071   -1.0390   -0.1045 H   0  0  0  1  0  0  0  0  0  0  0  0
   -4.1099    3.6002   -0.4550 H   0  0  0  1  0  0  0  0  0  0  0  0
   -2.4194    3.4277   -0.8610 H   0  0  0  1  0  0  0  0  0  0  0  0
   -3.1732    3.1903   -0.1397 C   0  0  0  1  0  0  0  0  0  0  0  0
   -2.9035    3.6057    0.8088 H   0  0  0  1  0  0  0  0  0  0  0  0
   -8.5864    3.4982    5.6692 N   0  0  0  1  0  0  0  0  0  0  0  0
   -5.3315    2.8947    6.0374 C   0  0  0  1  0  0  0  0  0  0  0  0
   -4.7089    1.8398    6.9311 C   0  0  0  1  0  0  0  0  0  0  0  0
   -5.1587    4.0942    6.2495 O   0  0  0  1  0  0  0  0  0  0  0  0
   -9.6523    4.1684    6.3990 C   0  0  0  1  0  0  0  0  0  0  0  0
    2.0437   -1.0401    0.9797 O   0  0  0  1  0  0  0  0  0  0  0  0
   -8.0103    5.3010    4.4695 O   0  0  0  1  0  0  0  0  0  0  0  0
   -6.0677    2.4342    5.0220 N   0  0  0  1  0  0  0  0  0  0  0  0
   -2.0285   -1.6393    6.1210 O   0  5  0  1  0  0  0  0  0  0  0  0
   -4.4726    1.0531   -0.2039 N   0  0  0  1  0  0  0  0  0  0  0  0
   -3.7538   -3.0737    6.3801 O   0  0  0  1  0  0  0  0  0  0  0  0
   -6.2938    2.4929    1.7501 C   0  0  0  1  0  0  0  0  0  0  0  0
   -7.3119    2.5647    2.8778 C   0  0  0  1  0  0  0  0  0  0  0  0
   -2.3238    0.7649    0.2862 C   0  0  0  1  0  0  0  0  0  0  0  0
   -6.7436    1.6253    0.5870 C   0  0  0  1  0  0  0  0  0  0  0  0
   -2.9480   -0.4911    0.2818 C   0  0  0  1  0  0  0  0  0  0  0  0
    2.3889    1.1193    0.0576 C   0  0  0  1  0  0  0  0  0  0  0  0
   -6.7364    3.3203    4.0828 C   0  0  0  1  0  0  0  0  0  0  0  0
   -5.7466    1.6877   -0.5435 C   0  0  0  1  0  0  0  0  0  0  0  0
   -2.2801   -1.8215    0.5625 C   0  0  0  1  0  0  0  0  0  0  0  0
   -7.8577    4.1209    4.7385 C   0  0  0  1  0  0  0  0  0  0  0  0
    1.4547    0.2583    0.9115 C   0  0  0  1  0  0  0  0  0  0  0  0
    3.7221    1.3847    0.7116 C   0  0  0  1  0  0  0  0  0  0  0  0
   -0.9144    1.0176    0.5604 C   0  0  0  1  0  0  0  0  0  0  0  0
    4.7933    0.3335    0.4648 C   0  0  0  1  0  0  0  0  0  0  0  0
    0.0633    0.1676    0.3701 C   0  0  0  1  0  0  0  0  0  0  0  0
   -3.2941    1.7103   -0.0170 C   0  0  0  1  0  0  0  0  0  0  0  0
    6.1083    0.7576    1.0704 C   0  0  0  1  0  0  0  0  0  0  0  0
   -4.2811   -0.2987   -0.0243 C   0  0  0  1  0  0  0  0  0  0  0  0
   -3.1424   -2.9610    0.0705 C   0  0  0  1  0  0  0  0  0  0  0  0
   -3.3359   -3.9554    0.9287 C   0  0  0  1  0  0  0  0  0  0  0  0
   -2.4796   -4.1036    2.1579 C   0  0  0  1  0  0  0  0  0  0  0  0
    7.2720   -0.1926    0.8387 C   0  0  0  1  0  0  0  0  0  0  0  0
   -3.1100   -3.4909    3.4016 C   0  0  0  1  0  0  0  0  0  0  0  0
   -2.1574   -3.4118    4.5834 C   0  0  0  1  0  0  0  0  0  0  0  0
   -2.7536   -2.7348    5.7693 C   0  0  0  1  0  0  0  0  0  0  0  0
   -8.3966    2.5574    5.8673 H   0  0  0  1  0  0  0  0  0  0  0  0
   -3.6426    1.8993    6.8644 H   0  0  0  1  0  0  0  0  0  0  0  0
   -5.0321    0.8697    6.6160 H   0  0  0  1  0  0  0  0  0  0  0  0
   -5.0125    2.0061    7.9436 H   0  0  0  1  0  0  0  0  0  0  0  0
   -9.2362    4.9463    7.0045 H   0  0  0  1  0  0  0  0  0  0  0  0
  -10.1558    3.4609    7.0241 H   0  0  0  1  0  0  0  0  0  0  0  0
  -10.3485    4.5909    5.7049 H   0  0  0  1  0  0  0  0  0  0  0  0
    2.9027   -0.9805    1.4042 H   0  0  0  1  0  0  0  0  0  0  0  0
   -6.1602    1.4655    4.9061 H   0  0  0  1  0  0  0  0  0  0  0  0
   -5.3826    2.0907    2.1409 H   0  0  0  1  0  0  0  0  0  0  0  0
   -6.1198    3.4841    1.3865 H   0  0  0  1  0  0  0  0  0  0  0  0
   -7.5731    1.5716    3.1785 H   0  0  0  1  0  0  0  0  0  0  0  0
   -8.1861    3.0739    2.5293 H   0  0  0  1  0  0  0  0  0  0  0  0
   -7.6932    1.9726    0.2369 H   0  0  0  1  0  0  0  0  0  0  0  0
   -6.8342    0.6123    0.9194 H   0  0  0  1  0  0  0  0  0  0  0  0
    1.9096    2.0577   -0.1286 H   0  0  0  1  0  0  0  0  0  0  0  0
    2.5606    0.6156   -0.8706 H   0  0  0  1  0  0  0  0  0  0  0  0
   -6.0182    4.0196    3.7086 H   0  0  0  1  0  0  0  0  0  0  0  0
   -6.1616    1.1894   -1.3946 H   0  0  0  1  0  0  0  0  0  0  0  0
   -5.5648    2.7143   -0.7842 H   0  0  0  1  0  0  0  0  0  0  0  0
   -2.1292   -1.9241    1.6169 H   0  0  0  1  0  0  0  0  0  0  0  0
   -1.3351   -1.8536    0.0617 H   0  0  0  1  0  0  0  0  0  0  0  0
    1.4098    0.6841    1.8921 H   0  0  0  1  0  0  0  0  0  0  0  0
    3.5636    1.4520    1.7677 H   0  0  0  1  0  0  0  0  0  0  0  0
    4.0885    2.3209    0.3452 H   0  0  0  1  0  0  0  0  0  0  0  0
   -0.6641    1.9531    0.9395 H   0  0  0  1  0  0  0  0  0  0  0  0
    4.9189    0.2015   -0.5896 H   0  0  0  1  0  0  0  0  0  0  0  0
    4.4856   -0.5913    0.9064 H   0  0  0  1  0  0  0  0  0  0  0  0
   -0.1508   -0.6604   -0.2217 H   0  0  0  1  0  0  0  0  0  0  0  0
    5.9683    0.8558    2.1266 H   0  0  0  1  0  0  0  0  0  0  0  0
    6.3712    1.7080    0.6550 H   0  0  0  1  0  0  0  0  0  0  0  0
   -3.5589   -2.9659   -0.8824 H   0  0  0  1  0  0  0  0  0  0  0  0
   -4.0933   -4.6449    0.7484 H   0  0  0  1  0  0  0  0  0  0  0  0
   -1.5411   -3.6219    1.9792 H   0  0  0  1  0  0  0  0  0  0  0  0
   -2.3177   -5.1461    2.3365 H   0  0  0  1  0  0  0  0  0  0  0  0
    7.9401   -0.1491    1.6734 H   0  0  0  1  0  0  0  0  0  0  0  0
    7.7937    0.0930   -0.0507 H   0  0  0  1  0  0  0  0  0  0  0  0
    6.9012   -1.1904    0.7305 H   0  0  0  1  0  0  0  0  0  0  0  0
   -3.9522   -4.0875    3.6841 H   0  0  0  1  0  0  0  0  0  0  0  0
   -3.4377   -2.5006    3.1631 H   0  0  0  1  0  0  0  0  0  0  0  0
   -1.2864   -2.8679    4.2829 H   0  0  0  1  0  0  0  0  0  0  0  0
   -1.8787   -4.4062    4.8633 H   0  0  0  1  0  0  0  0  0  0  0  0
  1 34  1  0  0  0  0
  2  4  1  0  0  0  0
  3  4  1  0  0  0  0
  4  5  1  0  0  0  0
  4 32  1  0  0  0  0
  6 10  1  0  0  0  0
  6 26  1  0  0  0  0
  6 42  1  0  0  0  0
  7  8  1  0  0  0  0
  7  9  2  0  0  0  0
  7 13  1  0  0  0  0
  8 43  1  0  0  0  0
  8 44  1  0  0  0  0
  8 45  1  0  0  0  0
 10 46  1  0  0  0  0
 10 47  1  0  0  0  0
 10 48  1  0  0  0  0
 11 27  1  0  0  0  0
 11 49  1  0  0  0  0
 12 26  2  0  0  0  0
 13 23  1  0  0  0  0
 13 50  1  0  0  0  0
 14 41  1  0  0  0  0
 15 24  1  0  0  0  0
 15 32  4  0  0  0  0
 15 34  4  0  0  0  0
 16 41  2  0  0  0  0
 17 18  1  0  0  0  0
 17 20  1  0  0  0  0
 17 51  1  0  0  0  0
 17 52  1  0  0  0  0
 18 23  1  0  0  0  0
 18 53  1  0  0  0  0
 18 54  1  0  0  0  0
 19 21  4  0  0  0  0
 19 29  1  0  0  0  0
 19 32  4  0  0  0  0
 20 24  1  0  0  0  0
 20 55  1  0  0  0  0
 20 56  1  0  0  0  0
 21 25  1  0  0  0  0
 21 34  4  0  0  0  0
 22 27  1  0  0  0  0
 22 28  1  0  0  0  0
 22 57  1  0  0  0  0
 22 58  1  0  0  0  0
 23 26  1  0  0  0  0
 23 59  1  0  0  0  0
 24 60  1  0  0  0  0
 24 61  1  0  0  0  0
 25 35  1  0  0  0  0
 25 62  1  0  0  0  0
 25 63  1  0  0  0  0
 27 31  1  0  0  0  0
 27 64  1  0  0  0  0
 28 30  1  0  0  0  0
 28 65  1  0  0  0  0
 28 66  1  0  0  0  0
 29 31  2  0  0  0  0
 29 67  1  0  0  0  0
 30 33  1  0  0  0  0
 30 68  1  0  0  0  0
 30 69  1  0  0  0  0
 31 70  1  0  0  0  0
 33 38  1  0  0  0  0
 33 71  1  0  0  0  0
 33 72  1  0  0  0  0
 35 36  2  0  0  0  0
 35 73  1  0  0  0  0
 36 37  1  0  0  0  0
 36 74  1  0  0  0  0
 37 39  1  0  0  0  0
 37 75  1  0  0  0  0
 37 76  1  0  0  0  0
 38 77  1  0  0  0  0
 38 78  1  0  0  0  0
 38 79  1  0  0  0  0
 39 40  1  0  0  0  0
 39 80  1  0  0  0  0
 39 81  1  0  0  0  0
 40 41  1  0  0  0  0
 40 82  1  0  0  0  0
 40 83  1  0  0  0  0
M  END
> <ConfClashScore>
0 

> <ConfOneFourInteractionScore>
-0.981792 

> <ConfScore>
0.116538 

> <ConfScorePBest>
0.00341932 

> <ConfTolerance>
2.00153 

$$$$
9548876
  PyMOL2.2          3D                             0

 83 83  0  0  0  0  0  0  0  0999 V2000
   -5.0070   -1.0431   -0.1167 H   0  0  0  1  0  0  0  0  0  0  0  0
   -3.9243    3.6562    0.4671 H   0  0  0  1  0  0  0  0  0  0  0  0
   -3.2954    3.4708   -1.1523 H   0  0  0  1  0  0  0  0  0  0  0  0
   -3.1706    3.1852   -0.1287 C   0  0  0  1  0  0  0  0  0  0  0  0
   -2.2037    3.4915    0.2122 H   0  0  0  1  0  0  0  0  0  0  0  0
   -9.3356    1.6064    5.1732 N   0  0  0  1  0  0  0  0  0  0  0  0
   -8.9083   -1.3533    1.7606 C   0  0  0  1  0  0  0  0  0  0  0  0
   -8.8051   -2.7840    1.2369 C   0  0  0  1  0  0  0  0  0  0  0  0
   -9.4434   -0.4705    1.0914 O   0  0  0  1  0  0  0  0  0  0  0  0
  -10.3327    2.0744    6.1244 C   0  0  0  1  0  0  0  0  0  0  0  0
    1.7101    1.5889    0.1153 O   0  0  0  1  0  0  0  0  0  0  0  0
  -10.3929   -0.2591    4.4742 O   0  0  0  1  0  0  0  0  0  0  0  0
   -8.3081   -1.1350    2.9414 N   0  0  0  1  0  0  0  0  0  0  0  0
   -6.2213   -3.3253    3.4642 O   0  5  0  1  0  0  0  0  0  0  0  0
   -4.4702    1.0488   -0.2091 N   0  0  0  1  0  0  0  0  0  0  0  0
   -7.0866   -5.2556    4.3006 O   0  0  0  1  0  0  0  0  0  0  0  0
   -6.9672    0.8843    1.5103 C   0  0  0  1  0  0  0  0  0  0  0  0
   -7.8785    1.2553    2.6539 C   0  0  0  1  0  0  0  0  0  0  0  0
   -2.3277    0.7593    0.3070 C   0  0  0  1  0  0  0  0  0  0  0  0
   -6.5588    2.0728    0.6553 C   0  0  0  1  0  0  0  0  0  0  0  0
   -2.9524   -0.4963    0.2948 C   0  0  0  1  0  0  0  0  0  0  0  0
    2.0911    0.7042    2.2997 C   0  0  0  1  0  0  0  0  0  0  0  0
   -8.1800    0.1315    3.6467 C   0  0  0  1  0  0  0  0  0  0  0  0
   -5.7405    1.6845   -0.5643 C   0  0  0  1  0  0  0  0  0  0  0  0
   -2.2907   -1.8233    0.5825 C   0  0  0  1  0  0  0  0  0  0  0  0
   -9.4061    0.4580    4.4941 C   0  0  0  1  0  0  0  0  0  0  0  0
    1.4589    0.4632    0.9309 C   0  0  0  1  0  0  0  0  0  0  0  0
    1.8706   -0.4161    3.2579 C   0  0  0  1  0  0  0  0  0  0  0  0
   -0.9159    1.0716    0.4935 C   0  0  0  1  0  0  0  0  0  0  0  0
    2.5345   -0.3202    4.6180 C   0  0  0  1  0  0  0  0  0  0  0  0
   -0.0216    0.2739    1.0268 C   0  0  0  1  0  0  0  0  0  0  0  0
   -3.2937    1.7053   -0.0078 C   0  0  0  1  0  0  0  0  0  0  0  0
    2.2055   -1.4879    5.5325 C   0  0  0  1  0  0  0  0  0  0  0  0
   -4.2817   -0.3031   -0.0275 C   0  0  0  1  0  0  0  0  0  0  0  0
   -2.5870   -2.8959   -0.4169 C   0  0  0  1  0  0  0  0  0  0  0  0
   -3.1834   -4.0227   -0.1974 C   0  0  0  1  0  0  0  0  0  0  0  0
   -3.4726   -4.7113    1.0985 C   0  0  0  1  0  0  0  0  0  0  0  0
    2.7875   -1.3423    6.9282 C   0  0  0  1  0  0  0  0  0  0  0  0
   -4.9292   -4.8545    1.5086 C   0  0  0  1  0  0  0  0  0  0  0  0
   -5.1079   -5.3383    2.9384 C   0  0  0  1  0  0  0  0  0  0  0  0
   -6.2403   -4.6734    3.6424 C   0  0  0  1  0  0  0  0  0  0  0  0
   -8.5536    2.1766    5.0192 H   0  0  0  1  0  0  0  0  0  0  0  0
   -7.9002   -2.8949    0.6768 H   0  0  0  1  0  0  0  0  0  0  0  0
   -9.6430   -2.9937    0.6055 H   0  0  0  1  0  0  0  0  0  0  0  0
   -8.7997   -3.4658    2.0615 H   0  0  0  1  0  0  0  0  0  0  0  0
  -10.5885    3.0896    5.9033 H   0  0  0  1  0  0  0  0  0  0  0  0
   -9.9349    2.0150    7.1160 H   0  0  0  1  0  0  0  0  0  0  0  0
  -11.2077    1.4628    6.0534 H   0  0  0  1  0  0  0  0  0  0  0  0
    1.7879    2.3720    0.6651 H   0  0  0  1  0  0  0  0  0  0  0  0
   -7.9110   -1.9173    3.3780 H   0  0  0  1  0  0  0  0  0  0  0  0
   -7.4746    0.1771    0.8879 H   0  0  0  1  0  0  0  0  0  0  0  0
   -6.0829    0.4361    1.9128 H   0  0  0  1  0  0  0  0  0  0  0  0
   -8.8077    1.5878    2.2404 H   0  0  0  1  0  0  0  0  0  0  0  0
   -7.4202    2.0576    3.1935 H   0  0  0  1  0  0  0  0  0  0  0  0
   -5.9762    2.7391    1.2566 H   0  0  0  1  0  0  0  0  0  0  0  0
   -7.4448    2.5730    0.3241 H   0  0  0  1  0  0  0  0  0  0  0  0
    1.6691    1.5949    2.7162 H   0  0  0  1  0  0  0  0  0  0  0  0
    3.1448    0.8358    2.1683 H   0  0  0  1  0  0  0  0  0  0  0  0
   -7.3437    0.0611    4.3104 H   0  0  0  1  0  0  0  0  0  0  0  0
   -6.3119    1.0012   -1.1572 H   0  0  0  1  0  0  0  0  0  0  0  0
   -5.5349    2.5664   -1.1343 H   0  0  0  1  0  0  0  0  0  0  0  0
   -2.6224   -2.1605    1.5423 H   0  0  0  1  0  0  0  0  0  0  0  0
   -1.2319   -1.6704    0.6040 H   0  0  0  1  0  0  0  0  0  0  0  0
    1.8938   -0.4141    0.4996 H   0  0  0  1  0  0  0  0  0  0  0  0
    2.2263   -1.3108    2.7909 H   0  0  0  1  0  0  0  0  0  0  0  0
    0.8160   -0.4938    3.4217 H   0  0  0  1  0  0  0  0  0  0  0  0
   -0.5899    2.0069    0.1765 H   0  0  0  1  0  0  0  0  0  0  0  0
    2.2099    0.5830    5.0910 H   0  0  0  1  0  0  0  0  0  0  0  0
    3.5946   -0.2883    4.4765 H   0  0  0  1  0  0  0  0  0  0  0  0
   -0.3679   -0.5519    1.5559 H   0  0  0  1  0  0  0  0  0  0  0  0
    2.5956   -2.3826    5.0939 H   0  0  0  1  0  0  0  0  0  0  0  0
    1.1415   -1.5650    5.6149 H   0  0  0  1  0  0  0  0  0  0  0  0
   -2.2803   -2.7164   -1.3943 H   0  0  0  1  0  0  0  0  0  0  0  0
   -3.5101   -4.5241   -1.0480 H   0  0  0  1  0  0  0  0  0  0  0  0
   -2.9751   -4.1625    1.8707 H   0  0  0  1  0  0  0  0  0  0  0  0
   -3.0590   -5.6962    1.0370 H   0  0  0  1  0  0  0  0  0  0  0  0
    3.8560   -1.3437    6.8716 H   0  0  0  1  0  0  0  0  0  0  0  0
    2.4617   -2.1596    7.5372 H   0  0  0  1  0  0  0  0  0  0  0  0
    2.4546   -0.4211    7.3589 H   0  0  0  1  0  0  0  0  0  0  0  0
   -5.3992   -5.5563    0.8518 H   0  0  0  1  0  0  0  0  0  0  0  0
   -5.4044   -3.9007    1.4114 H   0  0  0  1  0  0  0  0  0  0  0  0
   -4.2067   -5.1401    3.4802 H   0  0  0  1  0  0  0  0  0  0  0  0
   -5.2897   -6.3926    2.9210 H   0  0  0  1  0  0  0  0  0  0  0  0
  1 34  1  0  0  0  0
  2  4  1  0  0  0  0
  3  4  1  0  0  0  0
  4  5  1  0  0  0  0
  4 32  1  0  0  0  0
  6 10  1  0  0  0  0
  6 26  1  0  0  0  0
  6 42  1  0  0  0  0
  7  8  1  0  0  0  0
  7  9  2  0  0  0  0
  7 13  1  0  0  0  0
  8 43  1  0  0  0  0
  8 44  1  0  0  0  0
  8 45  1  0  0  0  0
 10 46  1  0  0  0  0
 10 47  1  0  0  0  0
 10 48  1  0  0  0  0
 11 27  1  0  0  0  0
 11 49  1  0  0  0  0
 12 26  2  0  0  0  0
 13 23  1  0  0  0  0
 13 50  1  0  0  0  0
 14 41  1  0  0  0  0
 15 24  1  0  0  0  0
 15 32  4  0  0  0  0
 15 34  4  0  0  0  0
 16 41  2  0  0  0  0
 17 18  1  0  0  0  0
 17 20  1  0  0  0  0
 17 51  1  0  0  0  0
 17 52  1  0  0  0  0
 18 23  1  0  0  0  0
 18 53  1  0  0  0  0
 18 54  1  0  0  0  0
 19 21  4  0  0  0  0
 19 29  1  0  0  0  0
 19 32  4  0  0  0  0
 20 24  1  0  0  0  0
 20 55  1  0  0  0  0
 20 56  1  0  0  0  0
 21 25  1  0  0  0  0
 21 34  4  0  0  0  0
 22 27  1  0  0  0  0
 22 28  1  0  0  0  0
 22 57  1  0  0  0  0
 22 58  1  0  0  0  0
 23 26  1  0  0  0  0
 23 59  1  0  0  0  0
 24 60  1  0  0  0  0
 24 61  1  0  0  0  0
 25 35  1  0  0  0  0
 25 62  1  0  0  0  0
 25 63  1  0  0  0  0
 27 31  1  0  0  0  0
 27 64  1  0  0  0  0
 28 30  1  0  0  0  0
 28 65  1  0  0  0  0
 28 66  1  0  0  0  0
 29 31  2  0  0  0  0
 29 67  1  0  0  0  0
 30 33  1  0  0  0  0
 30 68  1  0  0  0  0
 30 69  1  0  0  0  0
 31 70  1  0  0  0  0
 33 38  1  0  0  0  0
 33 71  1  0  0  0  0
 33 72  1  0  0  0  0
 35 36  2  0  0  0  0
 35 73  1  0  0  0  0
 36 37  1  0  0  0  0
 36 74  1  0  0  0  0
 37 39  1  0  0  0  0
 37 75  1  0  0  0  0
 37 76  1  0  0  0  0
 38 77  1  0  0  0  0
 38 78  1  0  0  0  0
 38 79  1  0  0  0  0
 39 40  1  0  0  0  0
 39 80  1  0  0  0  0
 39 81  1  0  0  0  0
 40 41  1  0  0  0  0
 40 82  1  0  0  0  0
 40 83  1  0  0  0  0
M  END
> <ConfClashScore>
0 

> <ConfOneFourInteractionScore>
-0.993485 

> <ConfScore>
0.119747 

> <ConfScorePBest>
0.00339084 

> <ConfTolerance>
2.1997 

$$$$
9548876
  PyMOL2.2          3D                             0

 83 83  0  0  0  0  0  0  0  0999 V2000
   -5.0080   -1.0419   -0.1129 H   0  0  0  1  0  0  0  0  0  0  0  0
   -2.3837    3.5313    0.5048 H   0  0  0  1  0  0  0  0  0  0  0  0
   -4.0928    3.6440    0.1604 H   0  0  0  1  0  0  0  0  0  0  0  0
   -3.1711    3.1861   -0.1322 C   0  0  0  1  0  0  0  0  0  0  0  0
   -2.9491    3.4461   -1.1461 H   0  0  0  1  0  0  0  0  0  0  0  0
   -8.4594   -0.0165   -6.4369 N   0  0  0  1  0  0  0  0  0  0  0  0
   -4.2291   -0.5977   -4.8180 C   0  0  0  1  0  0  0  0  0  0  0  0
   -2.9593   -1.4214   -4.7265 C   0  0  0  1  0  0  0  0  0  0  0  0
   -4.1947    0.6218   -4.8079 O   0  0  0  1  0  0  0  0  0  0  0  0
   -9.0551    0.3988   -7.6981 C   0  0  0  1  0  0  0  0  0  0  0  0
    2.0413    2.4544   -0.0882 O   0  0  0  1  0  0  0  0  0  0  0  0
   -6.4336   -0.5029   -7.3008 O   0  0  0  1  0  0  0  0  0  0  0  0
   -5.3719   -1.2960   -4.9092 N   0  0  0  1  0  0  0  0  0  0  0  0
   -2.5942   -1.4848    7.0557 O   0  5  0  1  0  0  0  0  0  0  0  0
   -4.4719    1.0501   -0.2046 N   0  0  0  1  0  0  0  0  0  0  0  0
   -1.0800   -1.2932    5.3908 O   0  0  0  1  0  0  0  0  0  0  0  0
   -6.2777    0.4622   -2.7039 C   0  0  0  1  0  0  0  0  0  0  0  0
   -6.7566    0.6113   -4.1267 C   0  0  0  1  0  0  0  0  0  0  0  0
   -2.3236    0.7586    0.2856 C   0  0  0  1  0  0  0  0  0  0  0  0
   -6.0908    1.7804   -1.9945 C   0  0  0  1  0  0  0  0  0  0  0  0
   -2.9486   -0.4969    0.2764 C   0  0  0  1  0  0  0  0  0  0  0  0
    1.2950    3.5863    1.9089 C   0  0  0  1  0  0  0  0  0  0  0  0
   -6.6974   -0.6955   -4.9285 C   0  0  0  1  0  0  0  0  0  0  0  0
   -5.7453    1.6868   -0.5427 C   0  0  0  1  0  0  0  0  0  0  0  0
   -2.2838   -1.8248    0.5520 C   0  0  0  1  0  0  0  0  0  0  0  0
   -7.1894   -0.4214   -6.3466 C   0  0  0  1  0  0  0  0  0  0  0  0
    1.1376    2.3571    1.0085 C   0  0  0  1  0  0  0  0  0  0  0  0
    0.3781    3.4216    3.1099 C   0  0  0  1  0  0  0  0  0  0  0  0
   -0.9213    1.0644    0.5544 C   0  0  0  1  0  0  0  0  0  0  0  0
    0.4470    4.5851    4.0843 C   0  0  0  1  0  0  0  0  0  0  0  0
   -0.2762    2.2113    0.5496 C   0  0  0  1  0  0  0  0  0  0  0  0
   -3.2931    1.7058   -0.0148 C   0  0  0  1  0  0  0  0  0  0  0  0
   -0.5319    4.4677    5.2261 C   0  0  0  1  0  0  0  0  0  0  0  0
   -4.2815   -0.3024   -0.0297 C   0  0  0  1  0  0  0  0  0  0  0  0
   -3.1873   -3.0186    0.7464 C   0  0  0  1  0  0  0  0  0  0  0  0
   -3.0637   -3.6509    1.8864 C   0  0  0  1  0  0  0  0  0  0  0  0
   -2.3671   -3.1577    3.1264 C   0  0  0  1  0  0  0  0  0  0  0  0
   -0.5810    5.6576    6.1707 C   0  0  0  1  0  0  0  0  0  0  0  0
   -3.1734   -3.3887    4.3941 C   0  0  0  1  0  0  0  0  0  0  0  0
   -2.3306   -3.3560    5.6586 C   0  0  0  1  0  0  0  0  0  0  0  0
   -1.9134   -1.9620    5.9795 C   0  0  0  1  0  0  0  0  0  0  0  0
   -9.0089    0.0015   -5.6257 H   0  0  0  1  0  0  0  0  0  0  0  0
   -2.7917   -1.7075   -3.7092 H   0  0  0  1  0  0  0  0  0  0  0  0
   -2.1312   -0.8396   -5.0741 H   0  0  0  1  0  0  0  0  0  0  0  0
   -3.0588   -2.2982   -5.3316 H   0  0  0  1  0  0  0  0  0  0  0  0
   -8.4258    1.1254   -8.1682 H   0  0  0  1  0  0  0  0  0  0  0  0
  -10.0180    0.8273   -7.5135 H   0  0  0  1  0  0  0  0  0  0  0  0
   -9.1594   -0.4510   -8.3399 H   0  0  0  1  0  0  0  0  0  0  0  0
    1.8337    3.2356   -0.6061 H   0  0  0  1  0  0  0  0  0  0  0  0
   -5.3097   -2.2723   -4.9665 H   0  0  0  1  0  0  0  0  0  0  0  0
   -5.3403   -0.0537   -2.7138 H   0  0  0  1  0  0  0  0  0  0  0  0
   -6.9975   -0.1153   -2.1624 H   0  0  0  1  0  0  0  0  0  0  0  0
   -6.1430    1.3381   -4.6167 H   0  0  0  1  0  0  0  0  0  0  0  0
   -7.7704    0.9531   -4.1093 H   0  0  0  1  0  0  0  0  0  0  0  0
   -7.0026    2.3335   -2.0813 H   0  0  0  1  0  0  0  0  0  0  0  0
   -5.3030    2.3110   -2.4872 H   0  0  0  1  0  0  0  0  0  0  0  0
    1.0252    4.4683    1.3665 H   0  0  0  1  0  0  0  0  0  0  0  0
    2.3102    3.6657    2.2376 H   0  0  0  1  0  0  0  0  0  0  0  0
   -7.3844   -1.3799   -4.4762 H   0  0  0  1  0  0  0  0  0  0  0  0
   -5.7227    2.6823   -0.1511 H   0  0  0  1  0  0  0  0  0  0  0  0
   -6.5223    1.1310   -0.0608 H   0  0  0  1  0  0  0  0  0  0  0  0
   -1.6998   -1.7144    1.4417 H   0  0  0  1  0  0  0  0  0  0  0  0
   -1.6388   -2.0400   -0.2742 H   0  0  0  1  0  0  0  0  0  0  0  0
    1.3848    1.4937    1.5902 H   0  0  0  1  0  0  0  0  0  0  0  0
    0.6556    2.5278    3.6286 H   0  0  0  1  0  0  0  0  0  0  0  0
   -0.6286    3.3326    2.7584 H   0  0  0  1  0  0  0  0  0  0  0  0
   -0.3348    0.2382    0.7886 H   0  0  0  1  0  0  0  0  0  0  0  0
    0.2380    5.4881    3.5497 H   0  0  0  1  0  0  0  0  0  0  0  0
    1.4365    4.6305    4.4890 H   0  0  0  1  0  0  0  0  0  0  0  0
   -0.7754    3.0579    0.2096 H   0  0  0  1  0  0  0  0  0  0  0  0
   -0.2682    3.6031    5.7987 H   0  0  0  1  0  0  0  0  0  0  0  0
   -1.5090    4.3365    4.8104 H   0  0  0  1  0  0  0  0  0  0  0  0
   -3.8667   -3.3204    0.0191 H   0  0  0  1  0  0  0  0  0  0  0  0
   -3.4933   -4.5965    1.9411 H   0  0  0  1  0  0  0  0  0  0  0  0
   -2.1895   -2.1077    3.0224 H   0  0  0  1  0  0  0  0  0  0  0  0
   -1.4326   -3.6706    3.2190 H   0  0  0  1  0  0  0  0  0  0  0  0
    0.3919    5.8271    6.5826 H   0  0  0  1  0  0  0  0  0  0  0  0
   -1.2729    5.4563    6.9618 H   0  0  0  1  0  0  0  0  0  0  0  0
   -0.8967    6.5270    5.6327 H   0  0  0  1  0  0  0  0  0  0  0  0
   -3.6458   -4.3463    4.3259 H   0  0  0  1  0  0  0  0  0  0  0  0
   -3.9206   -2.6260    4.4646 H   0  0  0  1  0  0  0  0  0  0  0  0
   -1.4585   -3.9589    5.5146 H   0  0  0  1  0  0  0  0  0  0  0  0
   -2.9045   -3.7466    6.4728 H   0  0  0  1  0  0  0  0  0  0  0  0
  1 34  1  0  0  0  0
  2  4  1  0  0  0  0
  3  4  1  0  0  0  0
  4  5  1  0  0  0  0
  4 32  1  0  0  0  0
  6 10  1  0  0  0  0
  6 26  1  0  0  0  0
  6 42  1  0  0  0  0
  7  8  1  0  0  0  0
  7  9  2  0  0  0  0
  7 13  1  0  0  0  0
  8 43  1  0  0  0  0
  8 44  1  0  0  0  0
  8 45  1  0  0  0  0
 10 46  1  0  0  0  0
 10 47  1  0  0  0  0
 10 48  1  0  0  0  0
 11 27  1  0  0  0  0
 11 49  1  0  0  0  0
 12 26  2  0  0  0  0
 13 23  1  0  0  0  0
 13 50  1  0  0  0  0
 14 41  1  0  0  0  0
 15 24  1  0  0  0  0
 15 32  4  0  0  0  0
 15 34  4  0  0  0  0
 16 41  2  0  0  0  0
 17 18  1  0  0  0  0
 17 20  1  0  0  0  0
 17 51  1  0  0  0  0
 17 52  1  0  0  0  0
 18 23  1  0  0  0  0
 18 53  1  0  0  0  0
 18 54  1  0  0  0  0
 19 21  4  0  0  0  0
 19 29  1  0  0  0  0
 19 32  4  0  0  0  0
 20 24  1  0  0  0  0
 20 55  1  0  0  0  0
 20 56  1  0  0  0  0
 21 25  1  0  0  0  0
 21 34  4  0  0  0  0
 22 27  1  0  0  0  0
 22 28  1  0  0  0  0
 22 57  1  0  0  0  0
 22 58  1  0  0  0  0
 23 26  1  0  0  0  0
 23 59  1  0  0  0  0
 24 60  1  0  0  0  0
 24 61  1  0  0  0  0
 25 35  1  0  0  0  0
 25 62  1  0  0  0  0
 25 63  1  0  0  0  0
 27 31  1  0  0  0  0
 27 64  1  0  0  0  0
 28 30  1  0  0  0  0
 28 65  1  0  0  0  0
 28 66  1  0  0  0  0
 29 31  2  0  0  0  0
 29 67  1  0  0  0  0
 30 33  1  0  0  0  0
 30 68  1  0  0  0  0
 30 69  1  0  0  0  0
 31 70  1  0  0  0  0
 33 38  1  0  0  0  0
 33 71  1  0  0  0  0
 33 72  1  0  0  0  0
 35 36  2  0  0  0  0
 35 73  1  0  0  0  0
 36 37  1  0  0  0  0
 36 74  1  0  0  0  0
 37 39  1  0  0  0  0
 37 75  1  0  0  0  0
 37 76  1  0  0  0  0
 38 77  1  0  0  0  0
 38 78  1  0  0  0  0
 38 79  1  0  0  0  0
 39 40  1  0  0  0  0
 39 80  1  0  0  0  0
 39 81  1  0  0  0  0
 40 41  1  0  0  0  0
 40 82  1  0  0  0  0
 40 83  1  0  0  0  0
M  END
> <ConfClashScore>
0 

> <ConfOneFourInteractionScore>
-0.994449 

> <ConfScore>
0.120238 

> <ConfScorePBest>
0.00336236 

> <ConfTolerance>
2.18972 

$$$$
9548876
  PyMOL2.2          3D                             0

 83 83  0  0  0  0  0  0  0  0999 V2000
   -5.0076   -1.0424   -0.1083 H   0  0  0  1  0  0  0  0  0  0  0  0
   -3.4515    3.6436    0.7901 H   0  0  0  1  0  0  0  0  0  0  0  0
   -3.8163    3.5345   -0.9151 H   0  0  0  1  0  0  0  0  0  0  0  0
   -3.1714    3.1859   -0.1356 C   0  0  0  1  0  0  0  0  0  0  0  0
   -2.1590    3.4426   -0.3682 H   0  0  0  1  0  0  0  0  0  0  0  0
  -10.0084    1.8772    4.1519 N   0  0  0  1  0  0  0  0  0  0  0  0
   -6.3234   -0.3077    4.4433 C   0  0  0  1  0  0  0  0  0  0  0  0
   -4.9218   -0.5508    4.9683 C   0  0  0  1  0  0  0  0  0  0  0  0
   -7.2332   -1.1076    4.6578 O   0  0  0  1  0  0  0  0  0  0  0  0
  -10.2748    2.6955    2.9783 C   0  0  0  1  0  0  0  0  0  0  0  0
    1.3536    3.5655   -0.3177 O   0  0  0  1  0  0  0  0  0  0  0  0
   -8.7096    0.5121    5.3647 O   0  0  0  1  0  0  0  0  0  0  0  0
   -6.4949    0.8233    3.7407 N   0  0  0  1  0  0  0  0  0  0  0  0
   -0.0523   -7.3582    1.9345 O   0  5  0  1  0  0  0  0  0  0  0  0
   -4.4719    1.0496   -0.2039 N   0  0  0  1  0  0  0  0  0  0  0  0
    0.7881   -6.3761    3.7943 O   0  0  0  1  0  0  0  0  0  0  0  0
   -7.1845    0.2654    1.0271 C   0  0  0  1  0  0  0  0  0  0  0  0
   -8.2522    0.4111    2.0992 C   0  0  0  1  0  0  0  0  0  0  0  0
   -2.3234    0.7593    0.2862 C   0  0  0  1  0  0  0  0  0  0  0  0
   -6.7880    1.6439    0.5599 C   0  0  0  1  0  0  0  0  0  0  0  0
   -2.9482   -0.4963    0.2794 C   0  0  0  1  0  0  0  0  0  0  0  0
    1.5236    3.0531    2.0482 C   0  0  0  1  0  0  0  0  0  0  0  0
   -7.8054    1.2666    3.2890 C   0  0  0  1  0  0  0  0  0  0  0  0
   -5.7455    1.6854   -0.5427 C   0  0  0  1  0  0  0  0  0  0  0  0
   -2.2831   -1.8237    0.5572 C   0  0  0  1  0  0  0  0  0  0  0  0
   -8.8731    1.2099    4.3775 C   0  0  0  1  0  0  0  0  0  0  0  0
    1.0915    2.5656    0.6549 C   0  0  0  1  0  0  0  0  0  0  0  0
    1.3909    1.9893    3.1271 C   0  0  0  1  0  0  0  0  0  0  0  0
   -0.9216    1.0657    0.5540 C   0  0  0  1  0  0  0  0  0  0  0  0
    1.7684    2.4850    4.5098 C   0  0  0  1  0  0  0  0  0  0  0  0
   -0.3692    2.2454    0.6882 C   0  0  0  1  0  0  0  0  0  0  0  0
   -3.2931    1.7058   -0.0156 C   0  0  0  1  0  0  0  0  0  0  0  0
    1.8398    1.3779    5.5478 C   0  0  0  1  0  0  0  0  0  0  0  0
   -4.2812   -0.3026   -0.0267 C   0  0  0  1  0  0  0  0  0  0  0  0
   -3.2275   -2.7136    1.3011 C   0  0  0  1  0  0  0  0  0  0  0  0
   -3.0240   -3.1790    2.5081 C   0  0  0  1  0  0  0  0  0  0  0  0
   -1.8002   -2.9815    3.3620 C   0  0  0  1  0  0  0  0  0  0  0  0
    2.3441    1.8523    6.9009 C   0  0  0  1  0  0  0  0  0  0  0  0
   -1.0910   -4.2865    3.6993 C   0  0  0  1  0  0  0  0  0  0  0  0
   -0.7071   -5.0981    2.4728 C   0  0  0  1  0  0  0  0  0  0  0  0
    0.0777   -6.3206    2.8040 C   0  0  0  1  0  0  0  0  0  0  0  0
  -10.7151    1.8105    4.8276 H   0  0  0  1  0  0  0  0  0  0  0  0
   -4.2081   -0.2926    4.2141 H   0  0  0  1  0  0  0  0  0  0  0  0
   -4.8114   -1.5838    5.2246 H   0  0  0  1  0  0  0  0  0  0  0  0
   -4.7568    0.0523    5.8366 H   0  0  0  1  0  0  0  0  0  0  0  0
  -10.4831    3.6998    3.2830 H   0  0  0  1  0  0  0  0  0  0  0  0
  -11.1186    2.3003    2.4523 H   0  0  0  1  0  0  0  0  0  0  0  0
   -9.4184    2.6880    2.3368 H   0  0  0  1  0  0  0  0  0  0  0  0
    0.5289    3.8402   -0.7251 H   0  0  0  1  0  0  0  0  0  0  0  0
   -5.7104    1.3694    3.5245 H   0  0  0  1  0  0  0  0  0  0  0  0
   -7.5734   -0.2971    0.2041 H   0  0  0  1  0  0  0  0  0  0  0  0
   -6.3317   -0.2379    1.4326 H   0  0  0  1  0  0  0  0  0  0  0  0
   -8.5068   -0.5639    2.4591 H   0  0  0  1  0  0  0  0  0  0  0  0
   -9.1149    0.8660    1.6592 H   0  0  0  1  0  0  0  0  0  0  0  0
   -6.3989    2.1779    1.4016 H   0  0  0  1  0  0  0  0  0  0  0  0
   -7.6676    2.1358    0.2004 H   0  0  0  1  0  0  0  0  0  0  0  0
    0.9136    3.8893    2.3194 H   0  0  0  1  0  0  0  0  0  0  0  0
    2.5476    3.3594    1.9980 H   0  0  0  1  0  0  0  0  0  0  0  0
   -7.7303    2.2801    2.9541 H   0  0  0  1  0  0  0  0  0  0  0  0
   -6.1480    1.1887   -1.4007 H   0  0  0  1  0  0  0  0  0  0  0  0
   -5.5531    2.7106   -0.7810 H   0  0  0  1  0  0  0  0  0  0  0  0
   -1.4046   -1.6649    1.1470 H   0  0  0  1  0  0  0  0  0  0  0  0
   -2.0127   -2.2867   -0.3688 H   0  0  0  1  0  0  0  0  0  0  0  0
    1.6346    1.6734    0.4227 H   0  0  0  1  0  0  0  0  0  0  0  0
    2.0295    1.1687    2.8748 H   0  0  0  1  0  0  0  0  0  0  0  0
    0.3744    1.6563    3.1520 H   0  0  0  1  0  0  0  0  0  0  0  0
   -0.2850    0.2489    0.6497 H   0  0  0  1  0  0  0  0  0  0  0  0
    1.0371    3.1994    4.8255 H   0  0  0  1  0  0  0  0  0  0  0  0
    2.7268    2.9571    4.4510 H   0  0  0  1  0  0  0  0  0  0  0  0
   -1.0162    3.0465    0.8336 H   0  0  0  1  0  0  0  0  0  0  0  0
    2.5001    0.6170    5.1873 H   0  0  0  1  0  0  0  0  0  0  0  0
    0.8593    0.9689    5.6755 H   0  0  0  1  0  0  0  0  0  0  0  0
   -4.1116   -2.9828    0.8242 H   0  0  0  1  0  0  0  0  0  0  0  0
   -3.7911   -3.7467    2.9215 H   0  0  0  1  0  0  0  0  0  0  0  0
   -2.0949   -2.5082    4.2753 H   0  0  0  1  0  0  0  0  0  0  0  0
   -1.1165   -2.3484    2.8361 H   0  0  0  1  0  0  0  0  0  0  0  0
    1.6639    2.5740    7.3027 H   0  0  0  1  0  0  0  0  0  0  0  0
    3.3097    2.2985    6.7850 H   0  0  0  1  0  0  0  0  0  0  0  0
    2.4137    1.0183    7.5677 H   0  0  0  1  0  0  0  0  0  0  0  0
   -1.7419   -4.8789    4.3079 H   0  0  0  1  0  0  0  0  0  0  0  0
   -0.2007   -4.0572    4.2467 H   0  0  0  1  0  0  0  0  0  0  0  0
   -0.1190   -4.4807    1.8263 H   0  0  0  1  0  0  0  0  0  0  0  0
   -1.6020   -5.3946    1.9668 H   0  0  0  1  0  0  0  0  0  0  0  0
  1 34  1  0  0  0  0
  2  4  1  0  0  0  0
  3  4  1  0  0  0  0
  4  5  1  0  0  0  0
  4 32  1  0  0  0  0
  6 10  1  0  0  0  0
  6 26  1  0  0  0  0
  6 42  1  0  0  0  0
  7  8  1  0  0  0  0
  7  9  2  0  0  0  0
  7 13  1  0  0  0  0
  8 43  1  0  0  0  0
  8 44  1  0  0  0  0
  8 45  1  0  0  0  0
 10 46  1  0  0  0  0
 10 47  1  0  0  0  0
 10 48  1  0  0  0  0
 11 27  1  0  0  0  0
 11 49  1  0  0  0  0
 12 26  2  0  0  0  0
 13 23  1  0  0  0  0
 13 50  1  0  0  0  0
 14 41  1  0  0  0  0
 15 24  1  0  0  0  0
 15 32  4  0  0  0  0
 15 34  4  0  0  0  0
 16 41  2  0  0  0  0
 17 18  1  0  0  0  0
 17 20  1  0  0  0  0
 17 51  1  0  0  0  0
 17 52  1  0  0  0  0
 18 23  1  0  0  0  0
 18 53  1  0  0  0  0
 18 54  1  0  0  0  0
 19 21  4  0  0  0  0
 19 29  1  0  0  0  0
 19 32  4  0  0  0  0
 20 24  1  0  0  0  0
 20 55  1  0  0  0  0
 20 56  1  0  0  0  0
 21 25  1  0  0  0  0
 21 34  4  0  0  0  0
 22 27  1  0  0  0  0
 22 28  1  0  0  0  0
 22 57  1  0  0  0  0
 22 58  1  0  0  0  0
 23 26  1  0  0  0  0
 23 59  1  0  0  0  0
 24 60  1  0  0  0  0
 24 61  1  0  0  0  0
 25 35  1  0  0  0  0
 25 62  1  0  0  0  0
 25 63  1  0  0  0  0
 27 31  1  0  0  0  0
 27 64  1  0  0  0  0
 28 30  1  0  0  0  0
 28 65  1  0  0  0  0
 28 66  1  0  0  0  0
 29 31  2  0  0  0  0
 29 67  1  0  0  0  0
 30 33  1  0  0  0  0
 30 68  1  0  0  0  0
 30 69  1  0  0  0  0
 31 70  1  0  0  0  0
 33 38  1  0  0  0  0
 33 71  1  0  0  0  0
 33 72  1  0  0  0  0
 35 36  2  0  0  0  0
 35 73  1  0  0  0  0
 36 37  1  0  0  0  0
 36 74  1  0  0  0  0
 37 39  1  0  0  0  0
 37 75  1  0  0  0  0
 37 76  1  0  0  0  0
 38 77  1  0  0  0  0
 38 78  1  0  0  0  0
 38 79  1  0  0  0  0
 39 40  1  0  0  0  0
 39 80  1  0  0  0  0
 39 81  1  0  0  0  0
 40 41  1  0  0  0  0
 40 82  1  0  0  0  0
 40 83  1  0  0  0  0
M  END
> <ConfClashScore>
0 

> <ConfOneFourInteractionScore>
-0.993363 

> <ConfScore>
0.120631 

> <ConfScorePBest>
0.00333388 

> <ConfTolerance>
2.16193 

$$$$
9548876
  PyMOL2.2          3D                             0

 83 83  0  0  0  0  0  0  0  0999 V2000
   -4.9883   -1.0329   -0.1424 H   0  0  0  1  0  0  0  0  0  0  0  0
   -3.5306    3.6825    0.7336 H   0  0  0  1  0  0  0  0  0  0  0  0
   -3.8055    3.4733   -0.9790 H   0  0  0  1  0  0  0  0  0  0  0  0
   -3.1908    3.1865   -0.1515 C   0  0  0  1  0  0  0  0  0  0  0  0
   -2.1760    3.4629   -0.3477 H   0  0  0  1  0  0  0  0  0  0  0  0
   -9.8349   -4.0241    0.0724 N   0  0  0  1  0  0  0  0  0  0  0  0
   -6.7483   -2.7145    2.1695 C   0  0  0  1  0  0  0  0  0  0  0  0
   -5.6662   -3.7485    2.4124 C   0  0  0  1  0  0  0  0  0  0  0  0
   -6.8494   -1.7249    2.8934 O   0  0  0  1  0  0  0  0  0  0  0  0
  -10.9543   -4.9487   -0.0264 C   0  0  0  1  0  0  0  0  0  0  0  0
    1.2853    3.6060    1.7902 O   0  0  0  1  0  0  0  0  0  0  0  0
  -11.0993   -2.3627    0.9254 O   0  0  0  1  0  0  0  0  0  0  0  0
   -7.5905   -2.9116    1.1428 N   0  0  0  1  0  0  0  0  0  0  0  0
   -3.2635   -4.8855    1.6969 O   0  5  0  1  0  0  0  0  0  0  0  0
   -4.4526    1.0610   -0.1729 N   0  0  0  1  0  0  0  0  0  0  0  0
   -1.7379   -4.2362    3.2127 O   0  0  0  1  0  0  0  0  0  0  0  0
   -7.3138   -0.0929    0.1694 C   0  0  0  1  0  0  0  0  0  0  0  0
   -8.4012   -1.0709   -0.2482 C   0  0  0  1  0  0  0  0  0  0  0  0
   -2.3068    0.7565    0.3206 C   0  0  0  1  0  0  0  0  0  0  0  0
   -6.8040    0.7665   -0.9761 C   0  0  0  1  0  0  0  0  0  0  0  0
   -2.9313   -0.4984    0.2731 C   0  0  0  1  0  0  0  0  0  0  0  0
    1.8486    1.4202    0.8765 C   0  0  0  1  0  0  0  0  0  0  0  0
   -8.7270   -2.0382    0.8909 C   0  0  0  1  0  0  0  0  0  0  0  0
   -5.7244    1.7065   -0.4999 C   0  0  0  1  0  0  0  0  0  0  0  0
   -2.3221   -1.8610    0.5050 C   0  0  0  1  0  0  0  0  0  0  0  0
  -10.0108   -2.8125    0.6073 C   0  0  0  1  0  0  0  0  0  0  0  0
    0.9740    2.6775    0.7683 C   0  0  0  1  0  0  0  0  0  0  0  0
    1.5969    0.6195    2.1402 C   0  0  0  1  0  0  0  0  0  0  0  0
   -0.9078    1.0547    0.6050 C   0  0  0  1  0  0  0  0  0  0  0  0
    2.2690   -0.7392    2.0591 C   0  0  0  1  0  0  0  0  0  0  0  0
   -0.4667    2.2762    0.7895 C   0  0  0  1  0  0  0  0  0  0  0  0
   -3.2750    1.7114    0.0415 C   0  0  0  1  0  0  0  0  0  0  0  0
    1.9778   -1.6276    3.2565 C   0  0  0  1  0  0  0  0  0  0  0  0
   -4.2625   -0.2958   -0.0347 C   0  0  0  1  0  0  0  0  0  0  0  0
   -1.3645   -2.3030   -0.5555 C   0  0  0  1  0  0  0  0  0  0  0  0
   -0.3012   -3.0378   -0.3451 C   0  0  0  1  0  0  0  0  0  0  0  0
    0.3101   -3.2934    0.9959 C   0  0  0  1  0  0  0  0  0  0  0  0
    2.4911   -3.0487    3.0914 C   0  0  0  1  0  0  0  0  0  0  0  0
    0.4171   -4.7725    1.3293 C   0  0  0  1  0  0  0  0  0  0  0  0
   -0.9517   -5.4327    1.2959 C   0  0  0  1  0  0  0  0  0  0  0  0
   -1.9875   -4.7993    2.1597 C   0  0  0  1  0  0  0  0  0  0  0  0
   -8.9502   -4.2907   -0.2540 H   0  0  0  1  0  0  0  0  0  0  0  0
   -5.2210   -4.0255    1.4797 H   0  0  0  1  0  0  0  0  0  0  0  0
   -6.0964   -4.6132    2.8728 H   0  0  0  1  0  0  0  0  0  0  0  0
   -4.9174   -3.3363    3.0561 H   0  0  0  1  0  0  0  0  0  0  0  0
  -11.4723   -4.7853   -0.9483 H   0  0  0  1  0  0  0  0  0  0  0  0
  -11.6239   -4.7865    0.7923 H   0  0  0  1  0  0  0  0  0  0  0  0
  -10.5898   -5.9543    0.0042 H   0  0  0  1  0  0  0  0  0  0  0  0
    2.0862    4.0816    1.5580 H   0  0  0  1  0  0  0  0  0  0  0  0
   -7.4346   -3.6701    0.5421 H   0  0  0  1  0  0  0  0  0  0  0  0
   -6.4915   -0.6497    0.5677 H   0  0  0  1  0  0  0  0  0  0  0  0
   -7.7093    0.5511    0.9267 H   0  0  0  1  0  0  0  0  0  0  0  0
   -8.0643   -1.6288   -1.0968 H   0  0  0  1  0  0  0  0  0  0  0  0
   -9.2838   -0.5244   -0.5077 H   0  0  0  1  0  0  0  0  0  0  0  0
   -7.6162    1.3380   -1.3743 H   0  0  0  1  0  0  0  0  0  0  0  0
   -6.4051    0.1323   -1.7400 H   0  0  0  1  0  0  0  0  0  0  0  0
    2.8758    1.7194    0.8633 H   0  0  0  1  0  0  0  0  0  0  0  0
    1.6481    0.7939    0.0325 H   0  0  0  1  0  0  0  0  0  0  0  0
   -8.8970   -1.4500    1.7684 H   0  0  0  1  0  0  0  0  0  0  0  0
   -5.5444    2.4255   -1.2716 H   0  0  0  1  0  0  0  0  0  0  0  0
   -6.0800    2.2055    0.3773 H   0  0  0  1  0  0  0  0  0  0  0  0
   -3.1157   -2.5768    0.5574 H   0  0  0  1  0  0  0  0  0  0  0  0
   -1.7993   -1.8383    1.4383 H   0  0  0  1  0  0  0  0  0  0  0  0
    1.1719    3.1261   -0.1828 H   0  0  0  1  0  0  0  0  0  0  0  0
    0.5430    0.4828    2.2648 H   0  0  0  1  0  0  0  0  0  0  0  0
    1.9892    1.1555    2.9791 H   0  0  0  1  0  0  0  0  0  0  0  0
   -0.2321    0.2664    0.6640 H   0  0  0  1  0  0  0  0  0  0  0  0
    3.3269   -0.5911    1.9958 H   0  0  0  1  0  0  0  0  0  0  0  0
    1.9245   -1.2359    1.1763 H   0  0  0  1  0  0  0  0  0  0  0  0
   -1.1713    3.0211    0.9634 H   0  0  0  1  0  0  0  0  0  0  0  0
    0.9183   -1.6643    3.4019 H   0  0  0  1  0  0  0  0  0  0  0  0
    2.4420   -1.1972    4.1191 H   0  0  0  1  0  0  0  0  0  0  0  0
   -1.5574   -2.0045   -1.5329 H   0  0  0  1  0  0  0  0  0  0  0  0
    0.1520   -3.4764   -1.1721 H   0  0  0  1  0  0  0  0  0  0  0  0
   -0.2934   -2.8190    1.7413 H   0  0  0  1  0  0  0  0  0  0  0  0
    1.2925   -2.8695    1.0087 H   0  0  0  1  0  0  0  0  0  0  0  0
    2.7682   -3.2121    2.0709 H   0  0  0  1  0  0  0  0  0  0  0  0
    1.7221   -3.7397    3.3669 H   0  0  0  1  0  0  0  0  0  0  0  0
    3.3445   -3.1947    3.7202 H   0  0  0  1  0  0  0  0  0  0  0  0
    0.8357   -4.8822    2.3079 H   0  0  0  1  0  0  0  0  0  0  0  0
    1.0537   -5.2485    0.6131 H   0  0  0  1  0  0  0  0  0  0  0  0
   -0.8358   -6.4488    1.6106 H   0  0  0  1  0  0  0  0  0  0  0  0
   -1.3048   -5.4095    0.2861 H   0  0  0  1  0  0  0  0  0  0  0  0
  1 34  1  0  0  0  0
  2  4  1  0  0  0  0
  3  4  1  0  0  0  0
  4  5  1  0  0  0  0
  4 32  1  0  0  0  0
  6 10  1  0  0  0  0
  6 26  1  0  0  0  0
  6 42  1  0  0  0  0
  7  8  1  0  0  0  0
  7  9  2  0  0  0  0
  7 13  1  0  0  0  0
  8 43  1  0  0  0  0
  8 44  1  0  0  0  0
  8 45  1  0  0  0  0
 10 46  1  0  0  0  0
 10 47  1  0  0  0  0
 10 48  1  0  0  0  0
 11 27  1  0  0  0  0
 11 49  1  0  0  0  0
 12 26  2  0  0  0  0
 13 23  1  0  0  0  0
 13 50  1  0  0  0  0
 14 41  1  0  0  0  0
 15 24  1  0  0  0  0
 15 32  4  0  0  0  0
 15 34  4  0  0  0  0
 16 41  2  0  0  0  0
 17 18  1  0  0  0  0
 17 20  1  0  0  0  0
 17 51  1  0  0  0  0
 17 52  1  0  0  0  0
 18 23  1  0  0  0  0
 18 53  1  0  0  0  0
 18 54  1  0  0  0  0
 19 21  4  0  0  0  0
 19 29  1  0  0  0  0
 19 32  4  0  0  0  0
 20 24  1  0  0  0  0
 20 55  1  0  0  0  0
 20 56  1  0  0  0  0
 21 25  1  0  0  0  0
 21 34  4  0  0  0  0
 22 27  1  0  0  0  0
 22 28  1  0  0  0  0
 22 57  1  0  0  0  0
 22 58  1  0  0  0  0
 23 26  1  0  0  0  0
 23 59  1  0  0  0  0
 24 60  1  0  0  0  0
 24 61  1  0  0  0  0
 25 35  1  0  0  0  0
 25 62  1  0  0  0  0
 25 63  1  0  0  0  0
 27 31  1  0  0  0  0
 27 64  1  0  0  0  0
 28 30  1  0  0  0  0
 28 65  1  0  0  0  0
 28 66  1  0  0  0  0
 29 31  2  0  0  0  0
 29 67  1  0  0  0  0
 30 33  1  0  0  0  0
 30 68  1  0  0  0  0
 30 69  1  0  0  0  0
 31 70  1  0  0  0  0
 33 38  1  0  0  0  0
 33 71  1  0  0  0  0
 33 72  1  0  0  0  0
 35 36  2  0  0  0  0
 35 73  1  0  0  0  0
 36 37  1  0  0  0  0
 36 74  1  0  0  0  0
 37 39  1  0  0  0  0
 37 75  1  0  0  0  0
 37 76  1  0  0  0  0
 38 77  1  0  0  0  0
 38 78  1  0  0  0  0
 38 79  1  0  0  0  0
 39 40  1  0  0  0  0
 39 80  1  0  0  0  0
 39 81  1  0  0  0  0
 40 41  1  0  0  0  0
 40 82  1  0  0  0  0
 40 83  1  0  0  0  0
M  END
> <ConfClashScore>
0 

> <ConfOneFourInteractionScore>
-0.98837 

> <ConfScore>
0.130762 

> <ConfScorePBest>
0.0033054 

> <ConfTolerance>
2.43622 

$$$$
9548876
  PyMOL2.2          3D                             0

 83 83  0  0  0  0  0  0  0  0999 V2000
   -4.9983   -1.0392   -0.1180 H   0  0  0  1  0  0  0  0  0  0  0  0
   -3.4592    3.6400    0.8001 H   0  0  0  1  0  0  0  0  0  0  0  0
   -3.8804    3.5127   -0.8907 H   0  0  0  1  0  0  0  0  0  0  0  0
   -3.1993    3.1857   -0.1331 C   0  0  0  1  0  0  0  0  0  0  0  0
   -2.2031    3.4687   -0.4022 H   0  0  0  1  0  0  0  0  0  0  0  0
   -1.7620    3.2421   -3.6810 N   0  0  0  1  0  0  0  0  0  0  0  0
   -1.8612    1.4511   -6.3393 C   0  0  0  1  0  0  0  0  0  0  0  0
   -0.9861    0.2150   -6.4120 C   0  0  0  1  0  0  0  0  0  0  0  0
   -1.7199    2.3739   -7.1247 O   0  0  0  1  0  0  0  0  0  0  0  0
   -0.9741    4.1282   -2.8372 C   0  0  0  1  0  0  0  0  0  0  0  0
    1.1200    3.5687    1.1699 O   0  0  0  1  0  0  0  0  0  0  0  0
   -3.4051    4.7237   -4.0360 O   0  0  0  1  0  0  0  0  0  0  0  0
   -2.7852    1.4551   -5.3655 N   0  0  0  1  0  0  0  0  0  0  0  0
   -7.9896   -2.0071    0.1753 O   0  5  0  1  0  0  0  0  0  0  0  0
   -4.4545    1.0511   -0.2062 N   0  0  0  1  0  0  0  0  0  0  0  0
   -7.9839   -2.9442   -1.9082 O   0  0  0  1  0  0  0  0  0  0  0  0
   -4.7898    2.1318   -2.9240 C   0  0  0  1  0  0  0  0  0  0  0  0
   -4.9424    2.1521   -4.4371 C   0  0  0  1  0  0  0  0  0  0  0  0
   -2.3133    0.7536    0.3102 C   0  0  0  1  0  0  0  0  0  0  0  0
   -5.9592    1.7373   -2.0563 C   0  0  0  1  0  0  0  0  0  0  0  0
   -2.9421   -0.5000    0.2953 C   0  0  0  1  0  0  0  0  0  0  0  0
    1.8505    1.3088    1.1789 C   0  0  0  1  0  0  0  0  0  0  0  0
   -3.6395    2.6050   -5.1091 C   0  0  0  1  0  0  0  0  0  0  0  0
   -5.6945    1.7429   -0.5595 C   0  0  0  1  0  0  0  0  0  0  0  0
   -2.2918   -1.8154    0.5778 C   0  0  0  1  0  0  0  0  0  0  0  0
   -2.9369    3.6092   -4.2003 C   0  0  0  1  0  0  0  0  0  0  0  0
    1.1607    2.4102    0.3672 C   0  0  0  1  0  0  0  0  0  0  0  0
    1.9120   -0.0552    0.5109 C   0  0  0  1  0  0  0  0  0  0  0  0
   -0.8909    1.0056    0.5072 C   0  0  0  1  0  0  0  0  0  0  0  0
    2.4944   -1.1290    1.3962 C   0  0  0  1  0  0  0  0  0  0  0  0
   -0.1980    1.9600   -0.0670 C   0  0  0  1  0  0  0  0  0  0  0  0
   -3.2760    1.7033   -0.0031 C   0  0  0  1  0  0  0  0  0  0  0  0
    2.6305   -2.4741    0.7685 C   0  0  0  1  0  0  0  0  0  0  0  0
   -4.2705   -0.3018   -0.0271 C   0  0  0  1  0  0  0  0  0  0  0  0
   -1.8700   -2.6919   -0.5585 C   0  0  0  1  0  0  0  0  0  0  0  0
   -2.5897   -3.6939   -0.9975 C   0  0  0  1  0  0  0  0  0  0  0  0
   -3.8944   -4.1893   -0.4332 C   0  0  0  1  0  0  0  0  0  0  0  0
    3.2768   -3.5626    1.5823 C   0  0  0  1  0  0  0  0  0  0  0  0
   -5.0961   -3.4988   -1.0290 C   0  0  0  1  0  0  0  0  0  0  0  0
   -6.4021   -3.6920   -0.2756 C   0  0  0  1  0  0  0  0  0  0  0  0
   -7.5504   -2.8811   -0.7696 C   0  0  0  1  0  0  0  0  0  0  0  0
   -1.4188    2.3449   -3.8750 H   0  0  0  1  0  0  0  0  0  0  0  0
   -1.5392   -0.5888   -6.8512 H   0  0  0  1  0  0  0  0  0  0  0  0
   -0.6777   -0.0619   -5.4255 H   0  0  0  1  0  0  0  0  0  0  0  0
   -0.1240    0.4233   -7.0105 H   0  0  0  1  0  0  0  0  0  0  0  0
   -0.0864    3.6226   -2.5191 H   0  0  0  1  0  0  0  0  0  0  0  0
   -1.5501    4.4100   -1.9806 H   0  0  0  1  0  0  0  0  0  0  0  0
   -0.7066    5.0035   -3.3914 H   0  0  0  1  0  0  0  0  0  0  0  0
    0.2232    3.9104    1.1942 H   0  0  0  1  0  0  0  0  0  0  0  0
   -2.8880    0.6558   -4.8078 H   0  0  0  1  0  0  0  0  0  0  0  0
   -4.5047    3.1199   -2.6285 H   0  0  0  1  0  0  0  0  0  0  0  0
   -3.9959    1.4496   -2.7022 H   0  0  0  1  0  0  0  0  0  0  0  0
   -5.7274    2.8294   -4.7015 H   0  0  0  1  0  0  0  0  0  0  0  0
   -5.1895    1.1684   -4.7781 H   0  0  0  1  0  0  0  0  0  0  0  0
   -6.2570    0.7480   -2.3346 H   0  0  0  1  0  0  0  0  0  0  0  0
   -6.7597    2.4197   -2.2520 H   0  0  0  1  0  0  0  0  0  0  0  0
    1.3216    1.1997    2.1026 H   0  0  0  1  0  0  0  0  0  0  0  0
    2.8536    1.6243    1.3768 H   0  0  0  1  0  0  0  0  0  0  0  0
   -3.8812    3.0877   -6.0330 H   0  0  0  1  0  0  0  0  0  0  0  0
   -5.6277    2.7577   -0.2270 H   0  0  0  1  0  0  0  0  0  0  0  0
   -6.5104    1.2582   -0.0653 H   0  0  0  1  0  0  0  0  0  0  0  0
   -2.9815   -2.3823    1.1675 H   0  0  0  1  0  0  0  0  0  0  0  0
   -1.4138   -1.6102    1.1539 H   0  0  0  1  0  0  0  0  0  0  0  0
    1.7483    2.5967   -0.5074 H   0  0  0  1  0  0  0  0  0  0  0  0
    2.5167    0.0246   -0.3683 H   0  0  0  1  0  0  0  0  0  0  0  0
    0.9189   -0.3436    0.2363 H   0  0  0  1  0  0  0  0  0  0  0  0
   -0.3820    0.3747    1.1588 H   0  0  0  1  0  0  0  0  0  0  0  0
    1.8622   -1.2279    2.2537 H   0  0  0  1  0  0  0  0  0  0  0  0
    3.4678   -0.8095    1.7050 H   0  0  0  1  0  0  0  0  0  0  0  0
   -0.6252    2.4393   -0.8851 H   0  0  0  1  0  0  0  0  0  0  0  0
    3.2105   -2.3539   -0.1225 H   0  0  0  1  0  0  0  0  0  0  0  0
    1.6468   -2.8081    0.5120 H   0  0  0  1  0  0  0  0  0  0  0  0
   -0.9603   -2.4958   -1.0229 H   0  0  0  1  0  0  0  0  0  0  0  0
   -2.2199   -4.2026   -1.8258 H   0  0  0  1  0  0  0  0  0  0  0  0
   -3.8942   -4.0212    0.6235 H   0  0  0  1  0  0  0  0  0  0  0  0
   -3.9732   -5.2385   -0.6280 H   0  0  0  1  0  0  0  0  0  0  0  0
    3.6195   -3.1581    2.5117 H   0  0  0  1  0  0  0  0  0  0  0  0
    4.1072   -3.9665    1.0417 H   0  0  0  1  0  0  0  0  0  0  0  0
    2.5634   -4.3371    1.7721 H   0  0  0  1  0  0  0  0  0  0  0  0
   -5.2310   -3.8711   -2.0231 H   0  0  0  1  0  0  0  0  0  0  0  0
   -4.8889   -2.4497   -1.0656 H   0  0  0  1  0  0  0  0  0  0  0  0
   -6.2330   -3.4348    0.7492 H   0  0  0  1  0  0  0  0  0  0  0  0
   -6.6733   -4.7247   -0.3446 H   0  0  0  1  0  0  0  0  0  0  0  0
  1 34  1  0  0  0  0
  2  4  1  0  0  0  0
  3  4  1  0  0  0  0
  4  5  1  0  0  0  0
  4 32  1  0  0  0  0
  6 10  1  0  0  0  0
  6 26  1  0  0  0  0
  6 42  1  0  0  0  0
  7  8  1  0  0  0  0
  7  9  2  0  0  0  0
  7 13  1  0  0  0  0
  8 43  1  0  0  0  0
  8 44  1  0  0  0  0
  8 45  1  0  0  0  0
 10 46  1  0  0  0  0
 10 47  1  0  0  0  0
 10 48  1  0  0  0  0
 11 27  1  0  0  0  0
 11 49  1  0  0  0  0
 12 26  2  0  0  0  0
 13 23  1  0  0  0  0
 13 50  1  0  0  0  0
 14 41  1  0  0  0  0
 15 24  1  0  0  0  0
 15 32  4  0  0  0  0
 15 34  4  0  0  0  0
 16 41  2  0  0  0  0
 17 18  1  0  0  0  0
 17 20  1  0  0  0  0
 17 51  1  0  0  0  0
 17 52  1  0  0  0  0
 18 23  1  0  0  0  0
 18 53  1  0  0  0  0
 18 54  1  0  0  0  0
 19 21  4  0  0  0  0
 19 29  1  0  0  0  0
 19 32  4  0  0  0  0
 20 24  1  0  0  0  0
 20 55  1  0  0  0  0
 20 56  1  0  0  0  0
 21 25  1  0  0  0  0
 21 34  4  0  0  0  0
 22 27  1  0  0  0  0
 22 28  1  0  0  0  0
 22 57  1  0  0  0  0
 22 58  1  0  0  0  0
 23 26  1  0  0  0  0
 23 59  1  0  0  0  0
 24 60  1  0  0  0  0
 24 61  1  0  0  0  0
 25 35  1  0  0  0  0
 25 62  1  0  0  0  0
 25 63  1  0  0  0  0
 27 31  1  0  0  0  0
 27 64  1  0  0  0  0
 28 30  1  0  0  0  0
 28 65  1  0  0  0  0
 28 66  1  0  0  0  0
 29 31  2  0  0  0  0
 29 67  1  0  0  0  0
 30 33  1  0  0  0  0
 30 68  1  0  0  0  0
 30 69  1  0  0  0  0
 31 70  1  0  0  0  0
 33 38  1  0  0  0  0
 33 71  1  0  0  0  0
 33 72  1  0  0  0  0
 35 36  2  0  0  0  0
 35 73  1  0  0  0  0
 36 37  1  0  0  0  0
 36 74  1  0  0  0  0
 37 39  1  0  0  0  0
 37 75  1  0  0  0  0
 37 76  1  0  0  0  0
 38 77  1  0  0  0  0
 38 78  1  0  0  0  0
 38 79  1  0  0  0  0
 39 40  1  0  0  0  0
 39 80  1  0  0  0  0
 39 81  1  0  0  0  0
 40 41  1  0  0  0  0
 40 82  1  0  0  0  0
 40 83  1  0  0  0  0
M  END
> <ConfClashScore>
0 

> <ConfOneFourInteractionScore>
-0.985846 

> <ConfScore>
0.131535 

> <ConfScorePBest>
0.00327691 

> <ConfTolerance>
2.68407 

$$$$
9548876
  PyMOL2.2          3D                             0

 83 83  0  0  0  0  0  0  0  0999 V2000
   -5.0109   -1.0401   -0.1055 H   0  0  0  1  0  0  0  0  0  0  0  0
   -4.1406    3.6164   -0.2618 H   0  0  0  1  0  0  0  0  0  0  0  0
   -2.5628    3.4240   -0.9870 H   0  0  0  1  0  0  0  0  0  0  0  0
   -3.1690    3.1858   -0.1381 C   0  0  0  1  0  0  0  0  0  0  0  0
   -2.7146    3.5796    0.7470 H   0  0  0  1  0  0  0  0  0  0  0  0
   -9.9570    0.4260    2.4651 N   0  0  0  1  0  0  0  0  0  0  0  0
   -6.4268   -0.6848    4.0812 C   0  0  0  1  0  0  0  0  0  0  0  0
   -5.2946   -1.2638    4.9070 C   0  0  0  1  0  0  0  0  0  0  0  0
   -6.8586   -1.2709    3.0920 O   0  0  0  1  0  0  0  0  0  0  0  0
  -10.8004   -0.5477    1.7879 C   0  0  0  1  0  0  0  0  0  0  0  0
    1.6136    1.2587    1.5535 O   0  0  0  1  0  0  0  0  0  0  0  0
   -9.0902   -1.0390    3.9224 O   0  0  0  1  0  0  0  0  0  0  0  0
   -6.9107    0.4877    4.5010 N   0  0  0  1  0  0  0  0  0  0  0  0
    1.7605   -5.9534    4.3611 O   0  5  0  1  0  0  0  0  0  0  0  0
   -4.4723    1.0511   -0.2037 N   0  0  0  1  0  0  0  0  0  0  0  0
    2.8911   -4.8007    2.7587 O   0  0  0  1  0  0  0  0  0  0  0  0
   -6.8140    1.4512    1.7047 C   0  0  0  1  0  0  0  0  0  0  0  0
   -7.6503    2.0983    2.7918 C   0  0  0  1  0  0  0  0  0  0  0  0
   -2.3242    0.7585    0.2867 C   0  0  0  1  0  0  0  0  0  0  0  0
   -6.3588    2.4275    0.6335 C   0  0  0  1  0  0  0  0  0  0  0  0
   -2.9507   -0.4963    0.2815 C   0  0  0  1  0  0  0  0  0  0  0  0
    1.9274    3.1538    0.0949 C   0  0  0  1  0  0  0  0  0  0  0  0
   -8.0876    1.1262    3.8743 C   0  0  0  1  0  0  0  0  0  0  0  0
   -5.7451    1.6882   -0.5432 C   0  0  0  1  0  0  0  0  0  0  0  0
   -2.2854   -1.8281    0.5617 C   0  0  0  1  0  0  0  0  0  0  0  0
   -9.1128    0.0822    3.4418 C   0  0  0  1  0  0  0  0  0  0  0  0
    1.0301    2.4922    1.1450 C   0  0  0  1  0  0  0  0  0  0  0  0
    3.3175    3.5330    0.5694 C   0  0  0  1  0  0  0  0  0  0  0  0
   -0.9220    1.0634    0.5540 C   0  0  0  1  0  0  0  0  0  0  0  0
    4.1963    4.1032   -0.5334 C   0  0  0  1  0  0  0  0  0  0  0  0
   -0.3607    2.2447    0.6533 C   0  0  0  1  0  0  0  0  0  0  0  0
   -3.2927    1.7059   -0.0162 C   0  0  0  1  0  0  0  0  0  0  0  0
    5.5982    4.4569   -0.0644 C   0  0  0  1  0  0  0  0  0  0  0  0
   -4.2835   -0.3012   -0.0248 C   0  0  0  1  0  0  0  0  0  0  0  0
   -2.2713   -2.2253    2.0037 C   0  0  0  1  0  0  0  0  0  0  0  0
   -1.3602   -2.9814    2.5631 C   0  0  0  1  0  0  0  0  0  0  0  0
   -0.3463   -3.8475    1.8646 C   0  0  0  1  0  0  0  0  0  0  0  0
    6.5499    4.7845   -1.2033 C   0  0  0  1  0  0  0  0  0  0  0  0
   -0.4102   -5.3069    2.2957 C   0  0  0  1  0  0  0  0  0  0  0  0
    0.9173   -6.0344    2.1586 C   0  0  0  1  0  0  0  0  0  0  0  0
    1.9629   -5.5209    3.0877 C   0  0  0  1  0  0  0  0  0  0  0  0
  -10.0102    1.3666    2.1953 H   0  0  0  1  0  0  0  0  0  0  0  0
   -4.3570   -0.9588    4.4913 H   0  0  0  1  0  0  0  0  0  0  0  0
   -5.3576   -2.3319    4.8989 H   0  0  0  1  0  0  0  0  0  0  0  0
   -5.3702   -0.9092    5.9137 H   0  0  0  1  0  0  0  0  0  0  0  0
  -11.8080   -0.1886    1.7590 H   0  0  0  1  0  0  0  0  0  0  0  0
  -10.7682   -1.4767    2.3177 H   0  0  0  1  0  0  0  0  0  0  0  0
  -10.4452   -0.6935    0.7892 H   0  0  0  1  0  0  0  0  0  0  0  0
    1.3800    1.0809    2.4675 H   0  0  0  1  0  0  0  0  0  0  0  0
   -6.4702    0.9401    5.2504 H   0  0  0  1  0  0  0  0  0  0  0  0
   -7.3972    0.6844    1.2392 H   0  0  0  1  0  0  0  0  0  0  0  0
   -5.9476    1.0158    2.1572 H   0  0  0  1  0  0  0  0  0  0  0  0
   -8.5244    2.5202    2.3415 H   0  0  0  1  0  0  0  0  0  0  0  0
   -7.0725    2.8754    3.2470 H   0  0  0  1  0  0  0  0  0  0  0  0
   -5.6297    3.0906    1.0501 H   0  0  0  1  0  0  0  0  0  0  0  0
   -7.2014    2.9920    0.2924 H   0  0  0  1  0  0  0  0  0  0  0  0
    1.4395    4.0448   -0.2413 H   0  0  0  1  0  0  0  0  0  0  0  0
    2.0329    2.4735   -0.7242 H   0  0  0  1  0  0  0  0  0  0  0  0
   -8.5607    1.7140    4.6329 H   0  0  0  1  0  0  0  0  0  0  0  0
   -6.4301    0.9336   -0.8690 H   0  0  0  1  0  0  0  0  0  0  0  0
   -5.5782    2.3859   -1.3371 H   0  0  0  1  0  0  0  0  0  0  0  0
   -1.2727   -1.7735    0.2206 H   0  0  0  1  0  0  0  0  0  0  0  0
   -2.8071   -2.5838    0.0125 H   0  0  0  1  0  0  0  0  0  0  0  0
    0.9715    3.1499    1.9870 H   0  0  0  1  0  0  0  0  0  0  0  0
    3.7919    2.6585    0.9632 H   0  0  0  1  0  0  0  0  0  0  0  0
    3.2237    4.2672    1.3421 H   0  0  0  1  0  0  0  0  0  0  0  0
   -0.2922    0.2455    0.6811 H   0  0  0  1  0  0  0  0  0  0  0  0
    3.7320    4.9892   -0.9132 H   0  0  0  1  0  0  0  0  0  0  0  0
    4.2734    3.3769   -1.3154 H   0  0  0  1  0  0  0  0  0  0  0  0
   -0.9247    3.0709    0.3689 H   0  0  0  1  0  0  0  0  0  0  0  0
    5.9939    3.6250    0.4798 H   0  0  0  1  0  0  0  0  0  0  0  0
    5.5354    5.3083    0.5807 H   0  0  0  1  0  0  0  0  0  0  0  0
   -3.0426   -1.8749    2.6069 H   0  0  0  1  0  0  0  0  0  0  0  0
   -1.3342   -2.9837    3.6028 H   0  0  0  1  0  0  0  0  0  0  0  0
    0.6312   -3.4706    2.0821 H   0  0  0  1  0  0  0  0  0  0  0  0
   -0.5227   -3.7958    0.8105 H   0  0  0  1  0  0  0  0  0  0  0  0
    7.4801    5.1304   -0.8033 H   0  0  0  1  0  0  0  0  0  0  0  0
    6.1206    5.5477   -1.8182 H   0  0  0  1  0  0  0  0  0  0  0  0
    6.7191    3.9060   -1.7903 H   0  0  0  1  0  0  0  0  0  0  0  0
   -1.1359   -5.8082    1.6899 H   0  0  0  1  0  0  0  0  0  0  0  0
   -0.7135   -5.3448    3.3212 H   0  0  0  1  0  0  0  0  0  0  0  0
    1.2673   -5.9180    1.1542 H   0  0  0  1  0  0  0  0  0  0  0  0
    0.7596   -7.0726    2.3638 H   0  0  0  1  0  0  0  0  0  0  0  0
  1 34  1  0  0  0  0
  2  4  1  0  0  0  0
  3  4  1  0  0  0  0
  4  5  1  0  0  0  0
  4 32  1  0  0  0  0
  6 10  1  0  0  0  0
  6 26  1  0  0  0  0
  6 42  1  0  0  0  0
  7  8  1  0  0  0  0
  7  9  2  0  0  0  0
  7 13  1  0  0  0  0
  8 43  1  0  0  0  0
  8 44  1  0  0  0  0
  8 45  1  0  0  0  0
 10 46  1  0  0  0  0
 10 47  1  0  0  0  0
 10 48  1  0  0  0  0
 11 27  1  0  0  0  0
 11 49  1  0  0  0  0
 12 26  2  0  0  0  0
 13 23  1  0  0  0  0
 13 50  1  0  0  0  0
 14 41  1  0  0  0  0
 15 24  1  0  0  0  0
 15 32  4  0  0  0  0
 15 34  4  0  0  0  0
 16 41  2  0  0  0  0
 17 18  1  0  0  0  0
 17 20  1  0  0  0  0
 17 51  1  0  0  0  0
 17 52  1  0  0  0  0
 18 23  1  0  0  0  0
 18 53  1  0  0  0  0
 18 54  1  0  0  0  0
 19 21  4  0  0  0  0
 19 29  1  0  0  0  0
 19 32  4  0  0  0  0
 20 24  1  0  0  0  0
 20 55  1  0  0  0  0
 20 56  1  0  0  0  0
 21 25  1  0  0  0  0
 21 34  4  0  0  0  0
 22 27  1  0  0  0  0
 22 28  1  0  0  0  0
 22 57  1  0  0  0  0
 22 58  1  0  0  0  0
 23 26  1  0  0  0  0
 23 59  1  0  0  0  0
 24 60  1  0  0  0  0
 24 61  1  0  0  0  0
 25 35  1  0  0  0  0
 25 62  1  0  0  0  0
 25 63  1  0  0  0  0
 27 31  1  0  0  0  0
 27 64  1  0  0  0  0
 28 30  1  0  0  0  0
 28 65  1  0  0  0  0
 28 66  1  0  0  0  0
 29 31  2  0  0  0  0
 29 67  1  0  0  0  0
 30 33  1  0  0  0  0
 30 68  1  0  0  0  0
 30 69  1  0  0  0  0
 31 70  1  0  0  0  0
 33 38  1  0  0  0  0
 33 71  1  0  0  0  0
 33 72  1  0  0  0  0
 35 36  2  0  0  0  0
 35 73  1  0  0  0  0
 36 37  1  0  0  0  0
 36 74  1  0  0  0  0
 37 39  1  0  0  0  0
 37 75  1  0  0  0  0
 37 76  1  0  0  0  0
 38 77  1  0  0  0  0
 38 78  1  0  0  0  0
 38 79  1  0  0  0  0
 39 40  1  0  0  0  0
 39 80  1  0  0  0  0
 39 81  1  0  0  0  0
 40 41  1  0  0  0  0
 40 82  1  0  0  0  0
 40 83  1  0  0  0  0
M  END
> <ConfClashScore>
0 

> <ConfOneFourInteractionScore>
-0.988907 

> <ConfScore>
0.13713 

> <ConfScorePBest>
0.00324843 

> <ConfTolerance>
2.02222 

$$$$
9548876
  PyMOL2.2          3D                             0

 83 83  0  0  0  0  0  0  0  0999 V2000
   -4.9998   -1.0235   -0.1129 H   0  0  0  1  0  0  0  0  0  0  0  0
   -2.8313    3.3992   -1.1354 H   0  0  0  1  0  0  0  0  0  0  0  0
   -2.5157    3.6065    0.5705 H   0  0  0  1  0  0  0  0  0  0  0  0
   -3.1895    3.1903   -0.1490 C   0  0  0  1  0  0  0  0  0  0  0  0
   -4.1595    3.6240   -0.0227 H   0  0  0  1  0  0  0  0  0  0  0  0
  -10.2467    4.9913   -2.3719 N   0  0  0  1  0  0  0  0  0  0  0  0
  -10.1590    4.4862    1.2313 C   0  0  0  1  0  0  0  0  0  0  0  0
  -11.5340    4.5580    1.8829 C   0  0  0  1  0  0  0  0  0  0  0  0
   -9.1701    4.9666    1.7835 O   0  0  0  1  0  0  0  0  0  0  0  0
  -10.5320    6.0039   -3.3774 C   0  0  0  1  0  0  0  0  0  0  0  0
    1.8715    2.7497   -0.3473 O   0  0  0  1  0  0  0  0  0  0  0  0
   -7.9983    5.2454   -2.4384 O   0  0  0  1  0  0  0  0  0  0  0  0
  -10.1388    3.9439    0.0034 N   0  0  0  1  0  0  0  0  0  0  0  0
    4.5032   -2.2664    1.6303 O   0  5  0  1  0  0  0  0  0  0  0  0
   -4.4580    1.0687   -0.1524 N   0  0  0  1  0  0  0  0  0  0  0  0
    3.8137   -3.1397   -0.3352 O   0  0  0  1  0  0  0  0  0  0  0  0
   -8.1612    1.5009   -0.0500 C   0  0  0  1  0  0  0  0  0  0  0  0
   -8.6418    2.3495   -1.2115 C   0  0  0  1  0  0  0  0  0  0  0  0
   -2.3074    0.7581    0.3152 C   0  0  0  1  0  0  0  0  0  0  0  0
   -6.7773    1.8348    0.4739 C   0  0  0  1  0  0  0  0  0  0  0  0
   -2.9363   -0.4949    0.2768 C   0  0  0  1  0  0  0  0  0  0  0  0
    1.3451    3.5944    1.8269 C   0  0  0  1  0  0  0  0  0  0  0  0
   -8.9084    3.7902   -0.7584 C   0  0  0  1  0  0  0  0  0  0  0  0
   -5.7060    1.7134   -0.5623 C   0  0  0  1  0  0  0  0  0  0  0  0
   -2.3286   -1.8591    0.5029 C   0  0  0  1  0  0  0  0  0  0  0  0
   -9.0043    4.7273   -1.9574 C   0  0  0  1  0  0  0  0  0  0  0  0
    1.1392    2.4484    0.8483 C   0  0  0  1  0  0  0  0  0  0  0  0
    0.4384    3.5172    3.0445 C   0  0  0  1  0  0  0  0  0  0  0  0
   -0.8953    0.9974    0.5879 C   0  0  0  1  0  0  0  0  0  0  0  0
    0.6317    4.6713    4.0133 C   0  0  0  1  0  0  0  0  0  0  0  0
   -0.3018    2.1644    0.5651 C   0  0  0  1  0  0  0  0  0  0  0  0
   -3.2759    1.7157    0.0468 C   0  0  0  1  0  0  0  0  0  0  0  0
   -0.3383    4.6427    5.1880 C   0  0  0  1  0  0  0  0  0  0  0  0
   -4.2706   -0.2885   -0.0149 C   0  0  0  1  0  0  0  0  0  0  0  0
   -1.7039   -1.9830    1.8564 C   0  0  0  1  0  0  0  0  0  0  0  0
   -0.4270   -2.2107    2.0777 C   0  0  0  1  0  0  0  0  0  0  0  0
    0.6359   -2.0582    1.0179 C   0  0  0  1  0  0  0  0  0  0  0  0
   -0.0657    5.7238    6.2210 C   0  0  0  1  0  0  0  0  0  0  0  0
    1.7612   -1.1562    1.5075 C   0  0  0  1  0  0  0  0  0  0  0  0
    2.8641   -1.0532    0.4622 C   0  0  0  1  0  0  0  0  0  0  0  0
    3.7437   -2.2552    0.5021 C   0  0  0  1  0  0  0  0  0  0  0  0
  -10.9917    4.4854   -1.9854 H   0  0  0  1  0  0  0  0  0  0  0  0
  -12.1642    5.2109    1.3159 H   0  0  0  1  0  0  0  0  0  0  0  0
  -11.4367    4.9336    2.8800 H   0  0  0  1  0  0  0  0  0  0  0  0
  -11.9669    3.5799    1.9103 H   0  0  0  1  0  0  0  0  0  0  0  0
  -10.6182    6.9607   -2.9062 H   0  0  0  1  0  0  0  0  0  0  0  0
  -11.4506    5.7661   -3.8720 H   0  0  0  1  0  0  0  0  0  0  0  0
   -9.7371    6.0294   -4.0932 H   0  0  0  1  0  0  0  0  0  0  0  0
    1.2623    3.0305   -1.0341 H   0  0  0  1  0  0  0  0  0  0  0  0
  -10.9820    3.6410   -0.3937 H   0  0  0  1  0  0  0  0  0  0  0  0
   -8.1555    0.4794   -0.3684 H   0  0  0  1  0  0  0  0  0  0  0  0
   -8.8560    1.6203    0.7549 H   0  0  0  1  0  0  0  0  0  0  0  0
   -9.5464    1.9312   -1.6010 H   0  0  0  1  0  0  0  0  0  0  0  0
   -7.8928    2.3550   -1.9756 H   0  0  0  1  0  0  0  0  0  0  0  0
   -6.5487    1.1669    1.2780 H   0  0  0  1  0  0  0  0  0  0  0  0
   -6.7856    2.8413    0.8369 H   0  0  0  1  0  0  0  0  0  0  0  0
    1.1509    4.5149    1.3171 H   0  0  0  1  0  0  0  0  0  0  0  0
    2.3619    3.5779    2.1595 H   0  0  0  1  0  0  0  0  0  0  0  0
   -8.0830    4.1053   -0.1549 H   0  0  0  1  0  0  0  0  0  0  0  0
   -6.1080    1.1497   -1.3781 H   0  0  0  1  0  0  0  0  0  0  0  0
   -5.4651    2.7014   -0.8952 H   0  0  0  1  0  0  0  0  0  0  0  0
   -1.5773   -2.0288   -0.2398 H   0  0  0  1  0  0  0  0  0  0  0  0
   -3.0968   -2.5980    0.4093 H   0  0  0  1  0  0  0  0  0  0  0  0
    1.5594    1.5698    1.2913 H   0  0  0  1  0  0  0  0  0  0  0  0
    0.6416    2.6027    3.5613 H   0  0  0  1  0  0  0  0  0  0  0  0
   -0.5783    3.5208    2.7111 H   0  0  0  1  0  0  0  0  0  0  0  0
   -0.3092    0.1704    0.8206 H   0  0  0  1  0  0  0  0  0  0  0  0
    0.4923    5.5886    3.4805 H   0  0  0  1  0  0  0  0  0  0  0  0
    1.6298    4.6290    4.3965 H   0  0  0  1  0  0  0  0  0  0  0  0
   -0.8969    2.9825    0.3238 H   0  0  0  1  0  0  0  0  0  0  0  0
   -0.2629    3.6889    5.6671 H   0  0  0  1  0  0  0  0  0  0  0  0
   -1.3310    4.7758    4.8115 H   0  0  0  1  0  0  0  0  0  0  0  0
   -2.3252   -1.8816    2.6842 H   0  0  0  1  0  0  0  0  0  0  0  0
   -0.1360   -2.5106    3.0301 H   0  0  0  1  0  0  0  0  0  0  0  0
    0.1980   -1.6285    0.1412 H   0  0  0  1  0  0  0  0  0  0  0  0
    1.0363   -3.0219    0.7815 H   0  0  0  1  0  0  0  0  0  0  0  0
   -0.8473    5.7248    6.9518 H   0  0  0  1  0  0  0  0  0  0  0  0
   -0.0287    6.6776    5.7375 H   0  0  0  1  0  0  0  0  0  0  0  0
    0.8708    5.5302    6.7010 H   0  0  0  1  0  0  0  0  0  0  0  0
    2.1693   -1.5625    2.4093 H   0  0  0  1  0  0  0  0  0  0  0  0
    1.3690   -0.1797    1.7011 H   0  0  0  1  0  0  0  0  0  0  0  0
    3.4526   -0.1812    0.6578 H   0  0  0  1  0  0  0  0  0  0  0  0
    2.4211   -0.9748   -0.5087 H   0  0  0  1  0  0  0  0  0  0  0  0
  1 34  1  0  0  0  0
  2  4  1  0  0  0  0
  3  4  1  0  0  0  0
  4  5  1  0  0  0  0
  4 32  1  0  0  0  0
  6 10  1  0  0  0  0
  6 26  1  0  0  0  0
  6 42  1  0  0  0  0
  7  8  1  0  0  0  0
  7  9  2  0  0  0  0
  7 13  1  0  0  0  0
  8 43  1  0  0  0  0
  8 44  1  0  0  0  0
  8 45  1  0  0  0  0
 10 46  1  0  0  0  0
 10 47  1  0  0  0  0
 10 48  1  0  0  0  0
 11 27  1  0  0  0  0
 11 49  1  0  0  0  0
 12 26  2  0  0  0  0
 13 23  1  0  0  0  0
 13 50  1  0  0  0  0
 14 41  1  0  0  0  0
 15 24  1  0  0  0  0
 15 32  4  0  0  0  0
 15 34  4  0  0  0  0
 16 41  2  0  0  0  0
 17 18  1  0  0  0  0
 17 20  1  0  0  0  0
 17 51  1  0  0  0  0
 17 52  1  0  0  0  0
 18 23  1  0  0  0  0
 18 53  1  0  0  0  0
 18 54  1  0  0  0  0
 19 21  4  0  0  0  0
 19 29  1  0  0  0  0
 19 32  4  0  0  0  0
 20 24  1  0  0  0  0
 20 55  1  0  0  0  0
 20 56  1  0  0  0  0
 21 25  1  0  0  0  0
 21 34  4  0  0  0  0
 22 27  1  0  0  0  0
 22 28  1  0  0  0  0
 22 57  1  0  0  0  0
 22 58  1  0  0  0  0
 23 26  1  0  0  0  0
 23 59  1  0  0  0  0
 24 60  1  0  0  0  0
 24 61  1  0  0  0  0
 25 35  1  0  0  0  0
 25 62  1  0  0  0  0
 25 63  1  0  0  0  0
 27 31  1  0  0  0  0
 27 64  1  0  0  0  0
 28 30  1  0  0  0  0
 28 65  1  0  0  0  0
 28 66  1  0  0  0  0
 29 31  2  0  0  0  0
 29 67  1  0  0  0  0
 30 33  1  0  0  0  0
 30 68  1  0  0  0  0
 30 69  1  0  0  0  0
 31 70  1  0  0  0  0
 33 38  1  0  0  0  0
 33 71  1  0  0  0  0
 33 72  1  0  0  0  0
 35 36  2  0  0  0  0
 35 73  1  0  0  0  0
 36 37  1  0  0  0  0
 36 74  1  0  0  0  0
 37 39  1  0  0  0  0
 37 75  1  0  0  0  0
 37 76  1  0  0  0  0
 38 77  1  0  0  0  0
 38 78  1  0  0  0  0
 38 79  1  0  0  0  0
 39 40  1  0  0  0  0
 39 80  1  0  0  0  0
 39 81  1  0  0  0  0
 40 41  1  0  0  0  0
 40 82  1  0  0  0  0
 40 83  1  0  0  0  0
M  END
> <ConfClashScore>
0 

> <ConfOneFourInteractionScore>
-0.981892 

> <ConfScore>
0.140395 

> <ConfScorePBest>
0.00321995 

> <ConfTolerance>
1.94767 

$$$$
9548876
  PyMOL2.2          3D                             0

 83 83  0  0  0  0  0  0  0  0999 V2000
   -5.0216   -1.0156   -0.1085 H   0  0  0  1  0  0  0  0  0  0  0  0
   -3.9658    3.5419   -0.7750 H   0  0  0  1  0  0  0  0  0  0  0  0
   -2.2331    3.4528   -0.5693 H   0  0  0  1  0  0  0  0  0  0  0  0
   -3.1782    3.1899   -0.1420 C   0  0  0  1  0  0  0  0  0  0  0  0
   -3.2703    3.6391    0.8248 H   0  0  0  1  0  0  0  0  0  0  0  0
   -8.6400    6.3698    3.5142 N   0  0  0  1  0  0  0  0  0  0  0  0
  -10.4595    3.0861    0.5202 C   0  0  0  1  0  0  0  0  0  0  0  0
  -11.6169    2.9356   -0.4478 C   0  0  0  1  0  0  0  0  0  0  0  0
   -9.8565    2.1045    0.9519 O   0  0  0  1  0  0  0  0  0  0  0  0
   -8.8291    7.6698    4.1376 C   0  0  0  1  0  0  0  0  0  0  0  0
    2.1406    1.5496   -0.8286 O   0  0  0  1  0  0  0  0  0  0  0  0
  -10.0104    6.8671    1.7971 O   0  0  0  1  0  0  0  0  0  0  0  0
  -10.1474    4.3455    0.8647 N   0  0  0  1  0  0  0  0  0  0  0  0
    2.0903   -7.2556   -1.9365 O   0  5  0  1  0  0  0  0  0  0  0  0
   -4.4567    1.0688   -0.2020 N   0  0  0  1  0  0  0  0  0  0  0  0
    0.0166   -8.1477   -2.3193 O   0  0  0  1  0  0  0  0  0  0  0  0
   -7.4682    3.2034    0.6186 C   0  0  0  1  0  0  0  0  0  0  0  0
   -7.6956    4.5548    1.2784 C   0  0  0  1  0  0  0  0  0  0  0  0
   -2.3131    0.7484    0.2905 C   0  0  0  1  0  0  0  0  0  0  0  0
   -6.0334    2.9681    0.2165 C   0  0  0  1  0  0  0  0  0  0  0  0
   -2.9553   -0.4984    0.2822 C   0  0  0  1  0  0  0  0  0  0  0  0
    1.4003    3.6751    0.0466 C   0  0  0  1  0  0  0  0  0  0  0  0
   -9.1176    4.6502    1.8468 C   0  0  0  1  0  0  0  0  0  0  0  0
   -5.7719    1.6847   -0.5489 C   0  0  0  1  0  0  0  0  0  0  0  0
   -2.2585   -1.8077    0.5678 C   0  0  0  1  0  0  0  0  0  0  0  0
   -9.3178    6.0515    2.4033 C   0  0  0  1  0  0  0  0  0  0  0  0
    1.2278    2.1542    0.0857 C   0  0  0  1  0  0  0  0  0  0  0  0
    2.8325    4.0582    0.3259 C   0  0  0  1  0  0  0  0  0  0  0  0
   -0.8952    0.9810    0.5684 C   0  0  0  1  0  0  0  0  0  0  0  0
    3.0309    5.5269    0.4856 C   0  0  0  1  0  0  0  0  0  0  0  0
   -0.1856    1.7713   -0.2084 C   0  0  0  1  0  0  0  0  0  0  0  0
   -3.2692    1.7084   -0.0117 C   0  0  0  1  0  0  0  0  0  0  0  0
    4.4285    6.0440    0.4513 C   0  0  0  1  0  0  0  0  0  0  0  0
   -4.2851   -0.2860   -0.0254 C   0  0  0  1  0  0  0  0  0  0  0  0
   -1.1165   -2.1173   -0.3473 C   0  0  0  1  0  0  0  0  0  0  0  0
   -0.9168   -3.2277   -1.0121 C   0  0  0  1  0  0  0  0  0  0  0  0
   -1.7536   -4.4779   -0.9621 C   0  0  0  1  0  0  0  0  0  0  0  0
    4.6275    7.5292    0.5913 C   0  0  0  1  0  0  0  0  0  0  0  0
   -1.1239   -5.6476   -1.7072 C   0  0  0  1  0  0  0  0  0  0  0  0
    0.1869   -6.1156   -1.0963 C   0  0  0  1  0  0  0  0  0  0  0  0
    0.7335   -7.2808   -1.8472 C   0  0  0  1  0  0  0  0  0  0  0  0
   -8.0155    5.7251    3.9075 H   0  0  0  1  0  0  0  0  0  0  0  0
  -11.4237    3.5126   -1.3280 H   0  0  0  1  0  0  0  0  0  0  0  0
  -12.5166    3.2829    0.0156 H   0  0  0  1  0  0  0  0  0  0  0  0
  -11.7271    1.9052   -0.7142 H   0  0  0  1  0  0  0  0  0  0  0  0
   -8.1514    8.3756    3.7044 H   0  0  0  1  0  0  0  0  0  0  0  0
   -8.6398    7.5924    5.1879 H   0  0  0  1  0  0  0  0  0  0  0  0
   -9.8350    7.9982    3.9792 H   0  0  0  1  0  0  0  0  0  0  0  0
    1.7092    1.4256   -1.6772 H   0  0  0  1  0  0  0  0  0  0  0  0
  -10.6298    5.0853    0.4402 H   0  0  0  1  0  0  0  0  0  0  0  0
   -8.0798    3.1464   -0.2575 H   0  0  0  1  0  0  0  0  0  0  0  0
   -7.7578    2.4369    1.3068 H   0  0  0  1  0  0  0  0  0  0  0  0
   -7.5555    5.3279    0.5521 H   0  0  0  1  0  0  0  0  0  0  0  0
   -6.9908    4.6800    2.0737 H   0  0  0  1  0  0  0  0  0  0  0  0
   -5.4407    2.9472    1.1071 H   0  0  0  1  0  0  0  0  0  0  0  0
   -5.7250    3.7874   -0.3988 H   0  0  0  1  0  0  0  0  0  0  0  0
    0.7676    4.1191    0.7865 H   0  0  0  1  0  0  0  0  0  0  0  0
    1.1235    4.0348   -0.9224 H   0  0  0  1  0  0  0  0  0  0  0  0
   -9.1952    3.9566    2.6578 H   0  0  0  1  0  0  0  0  0  0  0  0
   -6.5488    0.9851   -0.3210 H   0  0  0  1  0  0  0  0  0  0  0  0
   -5.7829    1.9019   -1.5966 H   0  0  0  1  0  0  0  0  0  0  0  0
   -2.9783   -2.5947    0.4812 H   0  0  0  1  0  0  0  0  0  0  0  0
   -1.8840   -1.7749    1.5695 H   0  0  0  1  0  0  0  0  0  0  0  0
    1.4576    1.8257    1.0778 H   0  0  0  1  0  0  0  0  0  0  0  0
    3.4390    3.7204   -0.4883 H   0  0  0  1  0  0  0  0  0  0  0  0
    3.1435    3.5738    1.2279 H   0  0  0  1  0  0  0  0  0  0  0  0
   -0.4457    0.5189    1.3845 H   0  0  0  1  0  0  0  0  0  0  0  0
    2.6100    5.8056    1.4290 H   0  0  0  1  0  0  0  0  0  0  0  0
    2.4920    6.0098   -0.3027 H   0  0  0  1  0  0  0  0  0  0  0  0
   -0.6308    2.1479   -1.0696 H   0  0  0  1  0  0  0  0  0  0  0  0
    4.8548    5.7513   -0.4854 H   0  0  0  1  0  0  0  0  0  0  0  0
    4.9632    5.5732    1.2497 H   0  0  0  1  0  0  0  0  0  0  0  0
   -0.4039   -1.3696   -0.4688 H   0  0  0  1  0  0  0  0  0  0  0  0
   -0.0903   -3.2479   -1.6431 H   0  0  0  1  0  0  0  0  0  0  0  0
   -2.7065   -4.2678   -1.4013 H   0  0  0  1  0  0  0  0  0  0  0  0
   -1.8863   -4.7582    0.0619 H   0  0  0  1  0  0  0  0  0  0  0  0
    4.4068    8.0084   -0.3395 H   0  0  0  1  0  0  0  0  0  0  0  0
    5.6431    7.7287    0.8630 H   0  0  0  1  0  0  0  0  0  0  0  0
    3.9742    7.9063    1.3501 H   0  0  0  1  0  0  0  0  0  0  0  0
   -0.9391   -5.3465   -2.7172 H   0  0  0  1  0  0  0  0  0  0  0  0
   -1.8133   -6.4658   -1.6989 H   0  0  0  1  0  0  0  0  0  0  0  0
    0.0175   -6.4019   -0.0793 H   0  0  0  1  0  0  0  0  0  0  0  0
    0.8950   -5.3141   -1.1286 H   0  0  0  1  0  0  0  0  0  0  0  0
  1 34  1  0  0  0  0
  2  4  1  0  0  0  0
  3  4  1  0  0  0  0
  4  5  1  0  0  0  0
  4 32  1  0  0  0  0
  6 10  1  0  0  0  0
  6 26  1  0  0  0  0
  6 42  1  0  0  0  0
  7  8  1  0  0  0  0
  7  9  2  0  0  0  0
  7 13  1  0  0  0  0
  8 43  1  0  0  0  0
  8 44  1  0  0  0  0
  8 45  1  0  0  0  0
 10 46  1  0  0  0  0
 10 47  1  0  0  0  0
 10 48  1  0  0  0  0
 11 27  1  0  0  0  0
 11 49  1  0  0  0  0
 12 26  2  0  0  0  0
 13 23  1  0  0  0  0
 13 50  1  0  0  0  0
 14 41  1  0  0  0  0
 15 24  1  0  0  0  0
 15 32  4  0  0  0  0
 15 34  4  0  0  0  0
 16 41  2  0  0  0  0
 17 18  1  0  0  0  0
 17 20  1  0  0  0  0
 17 51  1  0  0  0  0
 17 52  1  0  0  0  0
 18 23  1  0  0  0  0
 18 53  1  0  0  0  0
 18 54  1  0  0  0  0
 19 21  4  0  0  0  0
 19 29  1  0  0  0  0
 19 32  4  0  0  0  0
 20 24  1  0  0  0  0
 20 55  1  0  0  0  0
 20 56  1  0  0  0  0
 21 25  1  0  0  0  0
 21 34  4  0  0  0  0
 22 27  1  0  0  0  0
 22 28  1  0  0  0  0
 22 57  1  0  0  0  0
 22 58  1  0  0  0  0
 23 26  1  0  0  0  0
 23 59  1  0  0  0  0
 24 60  1  0  0  0  0
 24 61  1  0  0  0  0
 25 35  1  0  0  0  0
 25 62  1  0  0  0  0
 25 63  1  0  0  0  0
 27 31  1  0  0  0  0
 27 64  1  0  0  0  0
 28 30  1  0  0  0  0
 28 65  1  0  0  0  0
 28 66  1  0  0  0  0
 29 31  2  0  0  0  0
 29 67  1  0  0  0  0
 30 33  1  0  0  0  0
 30 68  1  0  0  0  0
 30 69  1  0  0  0  0
 31 70  1  0  0  0  0
 33 38  1  0  0  0  0
 33 71  1  0  0  0  0
 33 72  1  0  0  0  0
 35 36  2  0  0  0  0
 35 73  1  0  0  0  0
 36 37  1  0  0  0  0
 36 74  1  0  0  0  0
 37 39  1  0  0  0  0
 37 75  1  0  0  0  0
 37 76  1  0  0  0  0
 38 77  1  0  0  0  0
 38 78  1  0  0  0  0
 38 79  1  0  0  0  0
 39 40  1  0  0  0  0
 39 80  1  0  0  0  0
 39 81  1  0  0  0  0
 40 41  1  0  0  0  0
 40 82  1  0  0  0  0
 40 83  1  0  0  0  0
M  END
> <ConfClashScore>
0 

> <ConfOneFourInteractionScore>
-0.991382 

> <ConfScore>
0.147961 

> <ConfScorePBest>
0.00319147 

> <ConfTolerance>
2.17811 

$$$$
9548876
  PyMOL2.2          3D                             0

 83 83  0  0  0  0  0  0  0  0999 V2000
   -5.0091   -1.0386   -0.1257 H   0  0  0  1  0  0  0  0  0  0  0  0
   -2.3376    3.5281    0.4451 H   0  0  0  1  0  0  0  0  0  0  0  0
   -4.0691    3.6536    0.2484 H   0  0  0  1  0  0  0  0  0  0  0  0
   -3.1786    3.1923   -0.1248 C   0  0  0  1  0  0  0  0  0  0  0  0
   -3.0422    3.4585   -1.1521 H   0  0  0  1  0  0  0  0  0  0  0  0
  -10.1869    5.7335    0.9042 N   0  0  0  1  0  0  0  0  0  0  0  0
  -10.2000    6.0927   -2.3605 C   0  0  0  1  0  0  0  0  0  0  0  0
  -10.0380    7.4910   -2.9241 C   0  0  0  1  0  0  0  0  0  0  0  0
  -11.2121    5.4288   -2.5807 O   0  0  0  1  0  0  0  0  0  0  0  0
  -11.0628    5.9275    2.0501 C   0  0  0  1  0  0  0  0  0  0  0  0
    1.8184    1.2225    1.1595 O   0  0  0  1  0  0  0  0  0  0  0  0
  -11.0111    3.6749    0.5815 O   0  0  0  1  0  0  0  0  0  0  0  0
   -9.1775    5.6414   -1.6180 N   0  0  0  1  0  0  0  0  0  0  0  0
    1.1635   -0.6819    5.1621 O   0  5  0  1  0  0  0  0  0  0  0  0
   -4.4751    1.0542   -0.2124 N   0  0  0  1  0  0  0  0  0  0  0  0
   -0.4467   -1.9686    4.1485 O   0  0  0  1  0  0  0  0  0  0  0  0
   -7.9718    2.5538    0.2929 C   0  0  0  1  0  0  0  0  0  0  0  0
   -7.9093    3.8290   -0.5337 C   0  0  0  1  0  0  0  0  0  0  0  0
   -2.3331    0.7666    0.3067 C   0  0  0  1  0  0  0  0  0  0  0  0
   -6.6022    1.9978    0.6474 C   0  0  0  1  0  0  0  0  0  0  0  0
   -2.9560   -0.4899    0.2905 C   0  0  0  1  0  0  0  0  0  0  0  0
    1.9241    3.2433   -0.0694 C   0  0  0  1  0  0  0  0  0  0  0  0
   -9.2890    4.3729   -0.9160 C   0  0  0  1  0  0  0  0  0  0  0  0
   -5.7448    1.6886   -0.5680 C   0  0  0  1  0  0  0  0  0  0  0  0
   -2.2408   -1.7923    0.5858 C   0  0  0  1  0  0  0  0  0  0  0  0
  -10.2201    4.5532    0.2792 C   0  0  0  1  0  0  0  0  0  0  0  0
    1.0984    2.4316    0.9210 C   0  0  0  1  0  0  0  0  0  0  0  0
    3.2200    3.6529    0.6092 C   0  0  0  1  0  0  0  0  0  0  0  0
   -0.9025    0.9721    0.4983 C   0  0  0  1  0  0  0  0  0  0  0  0
    4.1307    4.3848   -0.3647 C   0  0  0  1  0  0  0  0  0  0  0  0
   -0.2833    2.1243    0.4375 C   0  0  0  1  0  0  0  0  0  0  0  0
   -3.2999    1.7119   -0.0075 C   0  0  0  1  0  0  0  0  0  0  0  0
    5.2978    5.0266    0.3676 C   0  0  0  1  0  0  0  0  0  0  0  0
   -4.2850   -0.2978   -0.0336 C   0  0  0  1  0  0  0  0  0  0  0  0
   -1.0936   -1.9614   -0.3590 C   0  0  0  1  0  0  0  0  0  0  0  0
    0.1702   -1.9815   -0.0082 C   0  0  0  1  0  0  0  0  0  0  0  0
    0.6602   -1.5183    1.3376 C   0  0  0  1  0  0  0  0  0  0  0  0
    6.1645    5.8980   -0.5269 C   0  0  0  1  0  0  0  0  0  0  0  0
    1.3392   -2.6222    2.1377 C   0  0  0  1  0  0  0  0  0  0  0  0
    1.8645   -2.0848    3.4590 C   0  0  0  1  0  0  0  0  0  0  0  0
    0.7106   -1.6012    4.2681 C   0  0  0  1  0  0  0  0  0  0  0  0
   -9.5897    6.4484    0.5997 H   0  0  0  1  0  0  0  0  0  0  0  0
  -10.9666    7.8165   -3.3443 H   0  0  0  1  0  0  0  0  0  0  0  0
   -9.2856    7.4837   -3.6849 H   0  0  0  1  0  0  0  0  0  0  0  0
   -9.7474    8.1595   -2.1408 H   0  0  0  1  0  0  0  0  0  0  0  0
  -10.7513    5.2886    2.8499 H   0  0  0  1  0  0  0  0  0  0  0  0
  -12.0687    5.6888    1.7743 H   0  0  0  1  0  0  0  0  0  0  0  0
  -11.0123    6.9477    2.3686 H   0  0  0  1  0  0  0  0  0  0  0  0
    2.7567    1.3768    1.0271 H   0  0  0  1  0  0  0  0  0  0  0  0
   -8.3539    6.1679   -1.5487 H   0  0  0  1  0  0  0  0  0  0  0  0
   -8.5044    1.8130   -0.2660 H   0  0  0  1  0  0  0  0  0  0  0  0
   -8.4981    2.7634    1.2006 H   0  0  0  1  0  0  0  0  0  0  0  0
   -7.3644    3.6249   -1.4316 H   0  0  0  1  0  0  0  0  0  0  0  0
   -7.3954    4.5764    0.0339 H   0  0  0  1  0  0  0  0  0  0  0  0
   -6.7368    1.0953    1.2062 H   0  0  0  1  0  0  0  0  0  0  0  0
   -6.0893    2.7179    1.2501 H   0  0  0  1  0  0  0  0  0  0  0  0
    1.3793    4.1157   -0.3644 H   0  0  0  1  0  0  0  0  0  0  0  0
    2.1404    2.6486   -0.9322 H   0  0  0  1  0  0  0  0  0  0  0  0
   -9.7433    3.6615   -1.5737 H   0  0  0  1  0  0  0  0  0  0  0  0
   -6.2885    1.0298   -1.2125 H   0  0  0  1  0  0  0  0  0  0  0  0
   -5.5386    2.6031   -1.0837 H   0  0  0  1  0  0  0  0  0  0  0  0
   -2.9231   -2.6078    0.4665 H   0  0  0  1  0  0  0  0  0  0  0  0
   -1.8746   -1.7771    1.5910 H   0  0  0  1  0  0  0  0  0  0  0  0
    1.0224    2.9891    1.8312 H   0  0  0  1  0  0  0  0  0  0  0  0
    3.7205    2.7776    0.9673 H   0  0  0  1  0  0  0  0  0  0  0  0
    2.9961    4.2984    1.4327 H   0  0  0  1  0  0  0  0  0  0  0  0
   -0.3243    0.1317    0.7005 H   0  0  0  1  0  0  0  0  0  0  0  0
    3.5695    5.1457   -0.8655 H   0  0  0  1  0  0  0  0  0  0  0  0
    4.5081    3.6878   -1.0835 H   0  0  0  1  0  0  0  0  0  0  0  0
   -0.8092    2.9111    0.0062 H   0  0  0  1  0  0  0  0  0  0  0  0
    5.9082    4.2503    0.7793 H   0  0  0  1  0  0  0  0  0  0  0  0
    4.9095    5.6333    1.1588 H   0  0  0  1  0  0  0  0  0  0  0  0
   -1.3143   -2.0714   -1.3693 H   0  0  0  1  0  0  0  0  0  0  0  0
    0.8680   -2.3349   -0.6936 H   0  0  0  1  0  0  0  0  0  0  0  0
   -0.1760   -1.1562    1.8985 H   0  0  0  1  0  0  0  0  0  0  0  0
    1.3618   -0.7241    1.1897 H   0  0  0  1  0  0  0  0  0  0  0  0
    6.6271    5.2910   -1.2769 H   0  0  0  1  0  0  0  0  0  0  0  0
    6.9202    6.3734    0.0629 H   0  0  0  1  0  0  0  0  0  0  0  0
    5.5564    6.6428   -0.9962 H   0  0  0  1  0  0  0  0  0  0  0  0
    2.1559   -3.0158    1.5695 H   0  0  0  1  0  0  0  0  0  0  0  0
    0.6313   -3.4007    2.3322 H   0  0  0  1  0  0  0  0  0  0  0  0
    2.5403   -1.2758    3.2758 H   0  0  0  1  0  0  0  0  0  0  0  0
    2.3741   -2.8632    3.9875 H   0  0  0  1  0  0  0  0  0  0  0  0
  1 34  1  0  0  0  0
  2  4  1  0  0  0  0
  3  4  1  0  0  0  0
  4  5  1  0  0  0  0
  4 32  1  0  0  0  0
  6 10  1  0  0  0  0
  6 26  1  0  0  0  0
  6 42  1  0  0  0  0
  7  8  1  0  0  0  0
  7  9  2  0  0  0  0
  7 13  1  0  0  0  0
  8 43  1  0  0  0  0
  8 44  1  0  0  0  0
  8 45  1  0  0  0  0
 10 46  1  0  0  0  0
 10 47  1  0  0  0  0
 10 48  1  0  0  0  0
 11 27  1  0  0  0  0
 11 49  1  0  0  0  0
 12 26  2  0  0  0  0
 13 23  1  0  0  0  0
 13 50  1  0  0  0  0
 14 41  1  0  0  0  0
 15 24  1  0  0  0  0
 15 32  4  0  0  0  0
 15 34  4  0  0  0  0
 16 41  2  0  0  0  0
 17 18  1  0  0  0  0
 17 20  1  0  0  0  0
 17 51  1  0  0  0  0
 17 52  1  0  0  0  0
 18 23  1  0  0  0  0
 18 53  1  0  0  0  0
 18 54  1  0  0  0  0
 19 21  4  0  0  0  0
 19 29  1  0  0  0  0
 19 32  4  0  0  0  0
 20 24  1  0  0  0  0
 20 55  1  0  0  0  0
 20 56  1  0  0  0  0
 21 25  1  0  0  0  0
 21 34  4  0  0  0  0
 22 27  1  0  0  0  0
 22 28  1  0  0  0  0
 22 57  1  0  0  0  0
 22 58  1  0  0  0  0
 23 26  1  0  0  0  0
 23 59  1  0  0  0  0
 24 60  1  0  0  0  0
 24 61  1  0  0  0  0
 25 35  1  0  0  0  0
 25 62  1  0  0  0  0
 25 63  1  0  0  0  0
 27 31  1  0  0  0  0
 27 64  1  0  0  0  0
 28 30  1  0  0  0  0
 28 65  1  0  0  0  0
 28 66  1  0  0  0  0
 29 31  2  0  0  0  0
 29 67  1  0  0  0  0
 30 33  1  0  0  0  0
 30 68  1  0  0  0  0
 30 69  1  0  0  0  0
 31 70  1  0  0  0  0
 33 38  1  0  0  0  0
 33 71  1  0  0  0  0
 33 72  1  0  0  0  0
 35 36  2  0  0  0  0
 35 73  1  0  0  0  0
 36 37  1  0  0  0  0
 36 74  1  0  0  0  0
 37 39  1  0  0  0  0
 37 75  1  0  0  0  0
 37 76  1  0  0  0  0
 38 77  1  0  0  0  0
 38 78  1  0  0  0  0
 38 79  1  0  0  0  0
 39 40  1  0  0  0  0
 39 80  1  0  0  0  0
 39 81  1  0  0  0  0
 40 41  1  0  0  0  0
 40 82  1  0  0  0  0
 40 83  1  0  0  0  0
M  END
> <ConfClashScore>
0.00296564 

> <ConfOneFourInteractionScore>
-0.98891 

> <ConfScore>
0.148334 

> <ConfScorePBest>
0.00316299 

> <ConfTolerance>
2.07988 

$$$$
9548876
  PyMOL2.2          3D                             0

 83 83  0  0  0  0  0  0  0  0999 V2000
   -4.9961   -1.0492   -0.1363 H   0  0  0  1  0  0  0  0  0  0  0  0
   -2.3598    3.5303    0.4556 H   0  0  0  1  0  0  0  0  0  0  0  0
   -4.0842    3.6446    0.1989 H   0  0  0  1  0  0  0  0  0  0  0  0
   -3.1787    3.1874   -0.1416 C   0  0  0  1  0  0  0  0  0  0  0  0
   -3.0085    3.4505   -1.1647 H   0  0  0  1  0  0  0  0  0  0  0  0
   -7.1694    5.3188    5.1695 N   0  0  0  1  0  0  0  0  0  0  0  0
   -5.2392    6.5724    2.7935 C   0  0  0  1  0  0  0  0  0  0  0  0
   -3.8753    7.2582    2.9105 C   0  0  0  1  0  0  0  0  0  0  0  0
   -6.1940    7.2544    2.4235 O   0  0  0  1  0  0  0  0  0  0  0  0
   -8.0054    5.8967    6.2111 C   0  0  0  1  0  0  0  0  0  0  0  0
    1.0500    2.8201    2.9176 O   0  0  0  1  0  0  0  0  0  0  0  0
   -8.7475    5.1032    3.5727 O   0  0  0  1  0  0  0  0  0  0  0  0
   -5.2784    5.2743    3.1071 N   0  0  0  1  0  0  0  0  0  0  0  0
   -8.7236   -4.6368   -0.5683 O   0  5  0  1  0  0  0  0  0  0  0  0
   -4.4687    1.0452   -0.2257 N   0  0  0  1  0  0  0  0  0  0  0  0
   -8.6223   -4.5674    1.7181 O   0  0  0  1  0  0  0  0  0  0  0  0
   -5.4646    2.3882    1.9648 C   0  0  0  1  0  0  0  0  0  0  0  0
   -6.1424    2.9958    3.1833 C   0  0  0  1  0  0  0  0  0  0  0  0
   -2.3252    0.7647    0.2913 C   0  0  0  1  0  0  0  0  0  0  0  0
   -6.3856    2.2418    0.7790 C   0  0  0  1  0  0  0  0  0  0  0  0
   -2.9442   -0.4937    0.2770 C   0  0  0  1  0  0  0  0  0  0  0  0
    1.8648    1.3543    1.1406 C   0  0  0  1  0  0  0  0  0  0  0  0
   -6.5071    4.4795    3.0020 C   0  0  0  1  0  0  0  0  0  0  0  0
   -5.7425    1.7223   -0.4822 C   0  0  0  1  0  0  0  0  0  0  0  0
   -2.2766   -1.8181    0.5632 C   0  0  0  1  0  0  0  0  0  0  0  0
   -7.5950    4.9734    3.9510 C   0  0  0  1  0  0  0  0  0  0  0  0
    0.8972    2.4687    1.5427 C   0  0  0  1  0  0  0  0  0  0  0  0
    3.2968    1.7107    1.3508 C   0  0  0  1  0  0  0  0  0  0  0  0
   -0.9199    1.0226    0.5838 C   0  0  0  1  0  0  0  0  0  0  0  0
    4.3436    0.6964    0.9318 C   0  0  0  1  0  0  0  0  0  0  0  0
   -0.5130    2.1001    1.2070 C   0  0  0  1  0  0  0  0  0  0  0  0
   -3.2953    1.7067   -0.0228 C   0  0  0  1  0  0  0  0  0  0  0  0
    5.7676    1.2050    1.0781 C   0  0  0  1  0  0  0  0  0  0  0  0
   -4.2741   -0.3061   -0.0458 C   0  0  0  1  0  0  0  0  0  0  0  0
   -3.0450   -2.6366    1.5445 C   0  0  0  1  0  0  0  0  0  0  0  0
   -3.8863   -3.6180    1.3348 C   0  0  0  1  0  0  0  0  0  0  0  0
   -4.3506   -4.1402    0.0123 C   0  0  0  1  0  0  0  0  0  0  0  0
    6.8135    0.2180    0.5860 C   0  0  0  1  0  0  0  0  0  0  0  0
   -5.7686   -4.6871   -0.0108 C   0  0  0  1  0  0  0  0  0  0  0  0
   -6.8092   -3.6836    0.4588 C   0  0  0  1  0  0  0  0  0  0  0  0
   -8.1379   -4.3377    0.6222 C   0  0  0  1  0  0  0  0  0  0  0  0
   -6.2231    5.1719    5.3774 H   0  0  0  1  0  0  0  0  0  0  0  0
   -3.4610    7.0665    3.8782 H   0  0  0  1  0  0  0  0  0  0  0  0
   -3.9940    8.3130    2.7762 H   0  0  0  1  0  0  0  0  0  0  0  0
   -3.2177    6.8742    2.1588 H   0  0  0  1  0  0  0  0  0  0  0  0
   -7.5422    6.7838    6.5897 H   0  0  0  1  0  0  0  0  0  0  0  0
   -8.1245    5.1899    7.0056 H   0  0  0  1  0  0  0  0  0  0  0  0
   -8.9642    6.1413    5.8039 H   0  0  0  1  0  0  0  0  0  0  0  0
    0.7374    2.0993    3.4692 H   0  0  0  1  0  0  0  0  0  0  0  0
   -4.4580    4.8379    3.4182 H   0  0  0  1  0  0  0  0  0  0  0  0
   -5.0958    1.4193    2.2295 H   0  0  0  1  0  0  0  0  0  0  0  0
   -4.6462    3.0172    1.6830 H   0  0  0  1  0  0  0  0  0  0  0  0
   -5.4796    2.9089    4.0187 H   0  0  0  1  0  0  0  0  0  0  0  0
   -7.0398    2.4475    3.3809 H   0  0  0  1  0  0  0  0  0  0  0  0
   -6.8021    3.2037    0.5644 H   0  0  0  1  0  0  0  0  0  0  0  0
   -7.1692    1.5661    1.0517 H   0  0  0  1  0  0  0  0  0  0  0  0
    1.7183    1.1356    0.1035 H   0  0  0  1  0  0  0  0  0  0  0  0
    1.6424    0.4852    1.7238 H   0  0  0  1  0  0  0  0  0  0  0  0
   -6.8839    4.5891    2.0066 H   0  0  0  1  0  0  0  0  0  0  0  0
   -6.4116    1.0291   -0.9478 H   0  0  0  1  0  0  0  0  0  0  0  0
   -5.5661    2.5463   -1.1416 H   0  0  0  1  0  0  0  0  0  0  0  0
   -1.3000   -1.6329    0.9593 H   0  0  0  1  0  0  0  0  0  0  0  0
   -2.1929   -2.3663   -0.3518 H   0  0  0  1  0  0  0  0  0  0  0  0
    1.1465    3.3247    0.9509 H   0  0  0  1  0  0  0  0  0  0  0  0
    3.4303    1.8945    2.3964 H   0  0  0  1  0  0  0  0  0  0  0  0
    3.4861    2.6102    0.8031 H   0  0  0  1  0  0  0  0  0  0  0  0
   -0.2117    0.3220    0.2851 H   0  0  0  1  0  0  0  0  0  0  0  0
    4.1779    0.4420   -0.0942 H   0  0  0  1  0  0  0  0  0  0  0  0
    4.2314   -0.1775    1.5390 H   0  0  0  1  0  0  0  0  0  0  0  0
   -1.2503    2.7723    1.5003 H   0  0  0  1  0  0  0  0  0  0  0  0
    5.9513    1.4062    2.1128 H   0  0  0  1  0  0  0  0  0  0  0  0
    5.8640    2.1101    0.5156 H   0  0  0  1  0  0  0  0  0  0  0  0
   -2.8899   -2.3919    2.5433 H   0  0  0  1  0  0  0  0  0  0  0  0
   -4.2735   -4.0851    2.1795 H   0  0  0  1  0  0  0  0  0  0  0  0
   -3.6884   -4.9271   -0.2828 H   0  0  0  1  0  0  0  0  0  0  0  0
   -4.2936   -3.3407   -0.6966 H   0  0  0  1  0  0  0  0  0  0  0  0
    7.4239    0.6857   -0.1580 H   0  0  0  1  0  0  0  0  0  0  0  0
    6.3267   -0.6356    0.1626 H   0  0  0  1  0  0  0  0  0  0  0  0
    7.4262   -0.0910    1.4070 H   0  0  0  1  0  0  0  0  0  0  0  0
   -5.8119   -5.5446    0.6276 H   0  0  0  1  0  0  0  0  0  0  0  0
   -6.0044   -4.9761   -1.0137 H   0  0  0  1  0  0  0  0  0  0  0  0
   -6.8910   -2.8988   -0.2638 H   0  0  0  1  0  0  0  0  0  0  0  0
   -6.5022   -3.2735    1.3983 H   0  0  0  1  0  0  0  0  0  0  0  0
  1 34  1  0  0  0  0
  2  4  1  0  0  0  0
  3  4  1  0  0  0  0
  4  5  1  0  0  0  0
  4 32  1  0  0  0  0
  6 10  1  0  0  0  0
  6 26  1  0  0  0  0
  6 42  1  0  0  0  0
  7  8  1  0  0  0  0
  7  9  2  0  0  0  0
  7 13  1  0  0  0  0
  8 43  1  0  0  0  0
  8 44  1  0  0  0  0
  8 45  1  0  0  0  0
 10 46  1  0  0  0  0
 10 47  1  0  0  0  0
 10 48  1  0  0  0  0
 11 27  1  0  0  0  0
 11 49  1  0  0  0  0
 12 26  2  0  0  0  0
 13 23  1  0  0  0  0
 13 50  1  0  0  0  0
 14 41  1  0  0  0  0
 15 24  1  0  0  0  0
 15 32  4  0  0  0  0
 15 34  4  0  0  0  0
 16 41  2  0  0  0  0
 17 18  1  0  0  0  0
 17 20  1  0  0  0  0
 17 51  1  0  0  0  0
 17 52  1  0  0  0  0
 18 23  1  0  0  0  0
 18 53  1  0  0  0  0
 18 54  1  0  0  0  0
 19 21  4  0  0  0  0
 19 29  1  0  0  0  0
 19 32  4  0  0  0  0
 20 24  1  0  0  0  0
 20 55  1  0  0  0  0
 20 56  1  0  0  0  0
 21 25  1  0  0  0  0
 21 34  4  0  0  0  0
 22 27  1  0  0  0  0
 22 28  1  0  0  0  0
 22 57  1  0  0  0  0
 22 58  1  0  0  0  0
 23 26  1  0  0  0  0
 23 59  1  0  0  0  0
 24 60  1  0  0  0  0
 24 61  1  0  0  0  0
 25 35  1  0  0  0  0
 25 62  1  0  0  0  0
 25 63  1  0  0  0  0
 27 31  1  0  0  0  0
 27 64  1  0  0  0  0
 28 30  1  0  0  0  0
 28 65  1  0  0  0  0
 28 66  1  0  0  0  0
 29 31  2  0  0  0  0
 29 67  1  0  0  0  0
 30 33  1  0  0  0  0
 30 68  1  0  0  0  0
 30 69  1  0  0  0  0
 31 70  1  0  0  0  0
 33 38  1  0  0  0  0
 33 71  1  0  0  0  0
 33 72  1  0  0  0  0
 35 36  2  0  0  0  0
 35 73  1  0  0  0  0
 36 37  1  0  0  0  0
 36 74  1  0  0  0  0
 37 39  1  0  0  0  0
 37 75  1  0  0  0  0
 37 76  1  0  0  0  0
 38 77  1  0  0  0  0
 38 78  1  0  0  0  0
 38 79  1  0  0  0  0
 39 40  1  0  0  0  0
 39 80  1  0  0  0  0
 39 81  1  0  0  0  0
 40 41  1  0  0  0  0
 40 82  1  0  0  0  0
 40 83  1  0  0  0  0
M  END
> <ConfClashScore>
0 

> <ConfOneFourInteractionScore>
-0.979286 

> <ConfScore>
0.156301 

> <ConfScorePBest>
0.00313451 

> <ConfTolerance>
2.26874 

$$$$
9548876
  PyMOL2.2          3D                             0

 83 83  0  0  0  0  0  0  0  0999 V2000
   -4.9994   -1.0284   -0.1352 H   0  0  0  1  0  0  0  0  0  0  0  0
   -2.9381    3.4454   -1.1556 H   0  0  0  1  0  0  0  0  0  0  0  0
   -2.4213    3.5605    0.5093 H   0  0  0  1  0  0  0  0  0  0  0  0
   -3.1808    3.1880   -0.1458 C   0  0  0  1  0  0  0  0  0  0  0  0
   -4.1229    3.6225    0.1161 H   0  0  0  1  0  0  0  0  0  0  0  0
   -6.5560   -4.8115    0.4003 N   0  0  0  1  0  0  0  0  0  0  0  0
   -7.6409   -2.8578   -3.3959 C   0  0  0  1  0  0  0  0  0  0  0  0
   -8.6570   -2.4809   -4.4565 C   0  0  0  1  0  0  0  0  0  0  0  0
   -6.5083   -3.2032   -3.6895 O   0  0  0  1  0  0  0  0  0  0  0  0
   -6.7285   -5.8385    1.4169 C   0  0  0  1  0  0  0  0  0  0  0  0
    1.9712    2.9944    0.2001 O   0  0  0  1  0  0  0  0  0  0  0  0
   -8.7569   -4.4155    0.1076 O   0  0  0  1  0  0  0  0  0  0  0  0
   -8.1125   -2.7714   -2.1420 N   0  0  0  1  0  0  0  0  0  0  0  0
   -0.4091   -4.0317    1.3269 O   0  5  0  1  0  0  0  0  0  0  0  0
   -4.4459    1.0593   -0.2217 N   0  0  0  1  0  0  0  0  0  0  0  0
    1.0602   -5.7487    1.5874 O   0  0  0  1  0  0  0  0  0  0  0  0
   -7.0253   -0.4212   -0.9617 C   0  0  0  1  0  0  0  0  0  0  0  0
   -7.1993   -1.6910   -0.1509 C   0  0  0  1  0  0  0  0  0  0  0  0
   -2.3068    0.7517    0.2979 C   0  0  0  1  0  0  0  0  0  0  0  0
   -6.9138    0.8269   -0.1075 C   0  0  0  1  0  0  0  0  0  0  0  0
   -2.9414   -0.4989    0.2815 C   0  0  0  1  0  0  0  0  0  0  0  0
    0.9080    3.4846    2.2666 C   0  0  0  1  0  0  0  0  0  0  0  0
   -7.2156   -2.9611   -1.0076 C   0  0  0  1  0  0  0  0  0  0  0  0
   -5.7321    1.7078   -0.4790 C   0  0  0  1  0  0  0  0  0  0  0  0
   -2.3456   -1.8591    0.5576 C   0  0  0  1  0  0  0  0  0  0  0  0
   -7.5897   -4.1530   -0.1315 C   0  0  0  1  0  0  0  0  0  0  0  0
    1.0407    2.4737    1.1227 C   0  0  0  1  0  0  0  0  0  0  0  0
    0.0045    2.9428    3.3623 C   0  0  0  1  0  0  0  0  0  0  0  0
   -0.9064    1.0468    0.5852 C   0  0  0  1  0  0  0  0  0  0  0  0
   -0.1468    3.8897    4.5417 C   0  0  0  1  0  0  0  0  0  0  0  0
   -0.2948    2.2094    0.5085 C   0  0  0  1  0  0  0  0  0  0  0  0
   -3.2647    1.7060   -0.0166 C   0  0  0  1  0  0  0  0  0  0  0  0
   -1.0884    3.3697    5.6145 C   0  0  0  1  0  0  0  0  0  0  0  0
   -4.2684   -0.2945   -0.0429 C   0  0  0  1  0  0  0  0  0  0  0  0
   -3.0962   -3.0478    0.0469 C   0  0  0  1  0  0  0  0  0  0  0  0
   -2.6215   -3.9273   -0.8272 C   0  0  0  1  0  0  0  0  0  0  0  0
   -1.1820   -3.8848   -1.2766 C   0  0  0  1  0  0  0  0  0  0  0  0
   -1.2060    4.2946    6.8112 C   0  0  0  1  0  0  0  0  0  0  0  0
   -0.6060   -5.2881   -1.3735 C   0  0  0  1  0  0  0  0  0  0  0  0
   -0.7242   -5.9502   -0.0104 C   0  0  0  1  0  0  0  0  0  0  0  0
    0.0807   -5.2680    1.0416 C   0  0  0  1  0  0  0  0  0  0  0  0
   -5.6501   -4.5954    0.0953 H   0  0  0  1  0  0  0  0  0  0  0  0
   -8.4481   -3.0178   -5.3581 H   0  0  0  1  0  0  0  0  0  0  0  0
   -8.6005   -1.4294   -4.6465 H   0  0  0  1  0  0  0  0  0  0  0  0
   -9.6395   -2.7294   -4.1131 H   0  0  0  1  0  0  0  0  0  0  0  0
   -6.7607   -5.3819    2.3840 H   0  0  0  1  0  0  0  0  0  0  0  0
   -5.9082   -6.5242    1.3736 H   0  0  0  1  0  0  0  0  0  0  0  0
   -7.6434   -6.3645    1.2404 H   0  0  0  1  0  0  0  0  0  0  0  0
    2.3054    3.8349    0.5218 H   0  0  0  1  0  0  0  0  0  0  0  0
   -9.0614   -2.5804   -1.9885 H   0  0  0  1  0  0  0  0  0  0  0  0
   -7.8697   -0.3143   -1.6101 H   0  0  0  1  0  0  0  0  0  0  0  0
   -6.1344   -0.5121   -1.5474 H   0  0  0  1  0  0  0  0  0  0  0  0
   -8.1253   -1.6292    0.3817 H   0  0  0  1  0  0  0  0  0  0  0  0
   -6.3905   -1.7622    0.5459 H   0  0  0  1  0  0  0  0  0  0  0  0
   -6.8073    0.5299    0.9149 H   0  0  0  1  0  0  0  0  0  0  0  0
   -7.8116    1.3977   -0.2219 H   0  0  0  1  0  0  0  0  0  0  0  0
    0.4909    4.3932    1.8853 H   0  0  0  1  0  0  0  0  0  0  0  0
    1.8770    3.6806    2.6758 H   0  0  0  1  0  0  0  0  0  0  0  0
   -6.2237   -3.1213   -1.3756 H   0  0  0  1  0  0  0  0  0  0  0  0
   -5.7947    1.9440   -1.5208 H   0  0  0  1  0  0  0  0  0  0  0  0
   -5.7825    2.6093    0.0952 H   0  0  0  1  0  0  0  0  0  0  0  0
   -2.2597   -1.9639    1.6190 H   0  0  0  1  0  0  0  0  0  0  0  0
   -1.3709   -1.8796    0.1167 H   0  0  0  1  0  0  0  0  0  0  0  0
    1.4105    1.5563    1.5306 H   0  0  0  1  0  0  0  0  0  0  0  0
    0.4170    2.0216    3.7175 H   0  0  0  1  0  0  0  0  0  0  0  0
   -0.9643    2.7629    2.9451 H   0  0  0  1  0  0  0  0  0  0  0  0
   -0.3218    0.2414    0.8870 H   0  0  0  1  0  0  0  0  0  0  0  0
   -0.5259    4.8230    4.1809 H   0  0  0  1  0  0  0  0  0  0  0  0
    0.8171    4.0414    4.9807 H   0  0  0  1  0  0  0  0  0  0  0  0
   -0.7645    2.9821   -0.0052 H   0  0  0  1  0  0  0  0  0  0  0  0
   -0.7263    2.4214    5.9530 H   0  0  0  1  0  0  0  0  0  0  0  0
   -2.0599    3.2478    5.1832 H   0  0  0  1  0  0  0  0  0  0  0  0
   -4.0620   -3.1964    0.4029 H   0  0  0  1  0  0  0  0  0  0  0  0
   -3.2539   -4.6593   -1.2092 H   0  0  0  1  0  0  0  0  0  0  0  0
   -0.6106   -3.3191   -0.5707 H   0  0  0  1  0  0  0  0  0  0  0  0
   -1.1280   -3.4164   -2.2371 H   0  0  0  1  0  0  0  0  0  0  0  0
   -0.5462    5.1275    6.6851 H   0  0  0  1  0  0  0  0  0  0  0  0
   -0.9416    3.7620    7.7007 H   0  0  0  1  0  0  0  0  0  0  0  0
   -2.2131    4.6468    6.8918 H   0  0  0  1  0  0  0  0  0  0  0  0
    0.4230   -5.2372   -1.6623 H   0  0  0  1  0  0  0  0  0  0  0  0
   -1.1529   -5.8539   -2.0986 H   0  0  0  1  0  0  0  0  0  0  0  0
   -0.3882   -6.9627   -0.0933 H   0  0  0  1  0  0  0  0  0  0  0  0
   -1.7523   -5.9382    0.2860 H   0  0  0  1  0  0  0  0  0  0  0  0
  1 34  1  0  0  0  0
  2  4  1  0  0  0  0
  3  4  1  0  0  0  0
  4  5  1  0  0  0  0
  4 32  1  0  0  0  0
  6 10  1  0  0  0  0
  6 26  1  0  0  0  0
  6 42  1  0  0  0  0
  7  8  1  0  0  0  0
  7  9  2  0  0  0  0
  7 13  1  0  0  0  0
  8 43  1  0  0  0  0
  8 44  1  0  0  0  0
  8 45  1  0  0  0  0
 10 46  1  0  0  0  0
 10 47  1  0  0  0  0
 10 48  1  0  0  0  0
 11 27  1  0  0  0  0
 11 49  1  0  0  0  0
 12 26  2  0  0  0  0
 13 23  1  0  0  0  0
 13 50  1  0  0  0  0
 14 41  1  0  0  0  0
 15 24  1  0  0  0  0
 15 32  4  0  0  0  0
 15 34  4  0  0  0  0
 16 41  2  0  0  0  0
 17 18  1  0  0  0  0
 17 20  1  0  0  0  0
 17 51  1  0  0  0  0
 17 52  1  0  0  0  0
 18 23  1  0  0  0  0
 18 53  1  0  0  0  0
 18 54  1  0  0  0  0
 19 21  4  0  0  0  0
 19 29  1  0  0  0  0
 19 32  4  0  0  0  0
 20 24  1  0  0  0  0
 20 55  1  0  0  0  0
 20 56  1  0  0  0  0
 21 25  1  0  0  0  0
 21 34  4  0  0  0  0
 22 27  1  0  0  0  0
 22 28  1  0  0  0  0
 22 57  1  0  0  0  0
 22 58  1  0  0  0  0
 23 26  1  0  0  0  0
 23 59  1  0  0  0  0
 24 60  1  0  0  0  0
 24 61  1  0  0  0  0
 25 35  1  0  0  0  0
 25 62  1  0  0  0  0
 25 63  1  0  0  0  0
 27 31  1  0  0  0  0
 27 64  1  0  0  0  0
 28 30  1  0  0  0  0
 28 65  1  0  0  0  0
 28 66  1  0  0  0  0
 29 31  2  0  0  0  0
 29 67  1  0  0  0  0
 30 33  1  0  0  0  0
 30 68  1  0  0  0  0
 30 69  1  0  0  0  0
 31 70  1  0  0  0  0
 33 38  1  0  0  0  0
 33 71  1  0  0  0  0
 33 72  1  0  0  0  0
 35 36  2  0  0  0  0
 35 73  1  0  0  0  0
 36 37  1  0  0  0  0
 36 74  1  0  0  0  0
 37 39  1  0  0  0  0
 37 75  1  0  0  0  0
 37 76  1  0  0  0  0
 38 77  1  0  0  0  0
 38 78  1  0  0  0  0
 38 79  1  0  0  0  0
 39 40  1  0  0  0  0
 39 80  1  0  0  0  0
 39 81  1  0  0  0  0
 40 41  1  0  0  0  0
 40 82  1  0  0  0  0
 40 83  1  0  0  0  0
M  END
> <ConfClashScore>
0 

> <ConfOneFourInteractionScore>
-0.991322 

> <ConfScore>
0.157841 

> <ConfScorePBest>
0.00310603 

> <ConfTolerance>
2.5001 

$$$$
9548876
  PyMOL2.2          3D                             0

 83 83  0  0  0  0  0  0  0  0999 V2000
   -5.0126   -1.0387   -0.1106 H   0  0  0  1  0  0  0  0  0  0  0  0
   -2.9230    3.4434   -1.1436 H   0  0  0  1  0  0  0  0  0  0  0  0
   -2.3935    3.5316    0.5191 H   0  0  0  1  0  0  0  0  0  0  0  0
   -3.1671    3.1856   -0.1342 C   0  0  0  1  0  0  0  0  0  0  0  0
   -4.0950    3.6445    0.1365 H   0  0  0  1  0  0  0  0  0  0  0  0
   -3.8908    0.6315   -6.7929 N   0  0  0  1  0  0  0  0  0  0  0  0
   -7.5490   -1.3755   -4.7218 C   0  0  0  1  0  0  0  0  0  0  0  0
   -8.0546   -2.5515   -3.9382 C   0  0  0  1  0  0  0  0  0  0  0  0
   -8.2385   -0.7119   -5.4730 O   0  0  0  1  0  0  0  0  0  0  0  0
   -2.5681    0.5761   -7.3972 C   0  0  0  1  0  0  0  0  0  0  0  0
    1.5461    2.0087    1.3868 O   0  0  0  1  0  0  0  0  0  0  0  0
   -3.5056   -0.7852   -5.1000 O   0  0  0  1  0  0  0  0  0  0  0  0
   -6.2487   -1.0716   -4.5538 N   0  0  0  1  0  0  0  0  0  0  0  0
   -3.6030   -6.7983    0.5794 O   0  5  0  1  0  0  0  0  0  0  0  0
   -4.4723    1.0521   -0.2044 N   0  0  0  1  0  0  0  0  0  0  0  0
   -5.7644   -6.2270    0.3581 O   0  0  0  1  0  0  0  0  0  0  0  0
   -5.5853    0.9178   -2.8783 C   0  0  0  1  0  0  0  0  0  0  0  0
   -5.8953    1.3060   -4.3158 C   0  0  0  1  0  0  0  0  0  0  0  0
   -2.3246    0.7568    0.2862 C   0  0  0  1  0  0  0  0  0  0  0  0
   -5.8049    2.1351   -1.9948 C   0  0  0  1  0  0  0  0  0  0  0  0
   -2.9522   -0.4974    0.2783 C   0  0  0  1  0  0  0  0  0  0  0  0
    1.9443   -0.1483    2.4177 C   0  0  0  1  0  0  0  0  0  0  0  0
   -5.7162    0.1003   -5.2578 C   0  0  0  1  0  0  0  0  0  0  0  0
   -5.7443    1.6910   -0.5432 C   0  0  0  1  0  0  0  0  0  0  0  0
   -2.2901   -1.8265    0.5553 C   0  0  0  1  0  0  0  0  0  0  0  0
   -4.2766   -0.0803   -5.7301 C   0  0  0  1  0  0  0  0  0  0  0  0
    1.4471    0.6124    1.1769 C   0  0  0  1  0  0  0  0  0  0  0  0
    0.8600   -0.6566    3.3505 C   0  0  0  1  0  0  0  0  0  0  0  0
   -0.9222    1.0599    0.5547 C   0  0  0  1  0  0  0  0  0  0  0  0
    1.3197   -1.6353    4.4140 C   0  0  0  1  0  0  0  0  0  0  0  0
    0.0260    0.2276    0.9133 C   0  0  0  1  0  0  0  0  0  0  0  0
   -3.2921    1.7056   -0.0152 C   0  0  0  1  0  0  0  0  0  0  0  0
    0.2177   -2.0283    5.3900 C   0  0  0  1  0  0  0  0  0  0  0  0
   -4.2846   -0.3006   -0.0281 C   0  0  0  1  0  0  0  0  0  0  0  0
   -1.3640   -2.2965   -0.5211 C   0  0  0  1  0  0  0  0  0  0  0  0
   -1.3242   -3.4937   -1.0659 C   0  0  0  1  0  0  0  0  0  0  0  0
   -1.9895   -4.7226   -0.4975 C   0  0  0  1  0  0  0  0  0  0  0  0
    0.7306   -3.0386    6.4032 C   0  0  0  1  0  0  0  0  0  0  0  0
   -2.7431   -5.4772   -1.5806 C   0  0  0  1  0  0  0  0  0  0  0  0
   -4.2393   -5.4511   -1.3139 C   0  0  0  1  0  0  0  0  0  0  0  0
   -4.6233   -6.1768   -0.0706 C   0  0  0  1  0  0  0  0  0  0  0  0
   -4.5481    1.2366   -7.1958 H   0  0  0  1  0  0  0  0  0  0  0  0
   -8.1846   -3.3878   -4.5929 H   0  0  0  1  0  0  0  0  0  0  0  0
   -8.9925   -2.3027   -3.4873 H   0  0  0  1  0  0  0  0  0  0  0  0
   -7.3471   -2.8024   -3.1756 H   0  0  0  1  0  0  0  0  0  0  0  0
   -1.8300    0.8296   -6.6652 H   0  0  0  1  0  0  0  0  0  0  0  0
   -2.5179    1.2709   -8.2094 H   0  0  0  1  0  0  0  0  0  0  0  0
   -2.3839   -0.4130   -7.7615 H   0  0  0  1  0  0  0  0  0  0  0  0
    1.7290    2.4461    0.5520 H   0  0  0  1  0  0  0  0  0  0  0  0
   -5.6740   -1.6176   -3.9776 H   0  0  0  1  0  0  0  0  0  0  0  0
   -4.5679    0.5953   -2.8025 H   0  0  0  1  0  0  0  0  0  0  0  0
   -6.2350    0.1256   -2.5699 H   0  0  0  1  0  0  0  0  0  0  0  0
   -5.2321    2.0893   -4.6185 H   0  0  0  1  0  0  0  0  0  0  0  0
   -6.9064    1.6510   -4.3759 H   0  0  0  1  0  0  0  0  0  0  0  0
   -6.7633    2.5635   -2.2018 H   0  0  0  1  0  0  0  0  0  0  0  0
   -5.0412    2.8605   -2.1829 H   0  0  0  1  0  0  0  0  0  0  0  0
    2.5774    0.5095    2.9758 H   0  0  0  1  0  0  0  0  0  0  0  0
    2.5120   -0.9909    2.0821 H   0  0  0  1  0  0  0  0  0  0  0  0
   -6.3208    0.2767   -6.1227 H   0  0  0  1  0  0  0  0  0  0  0  0
   -5.8749    2.5485    0.0833 H   0  0  0  1  0  0  0  0  0  0  0  0
   -6.5363    0.9941   -0.3646 H   0  0  0  1  0  0  0  0  0  0  0  0
   -3.0572   -2.5619    0.6802 H   0  0  0  1  0  0  0  0  0  0  0  0
   -1.7295   -1.7374    1.4624 H   0  0  0  1  0  0  0  0  0  0  0  0
    2.0438    0.3215    0.3377 H   0  0  0  1  0  0  0  0  0  0  0  0
    0.1147   -1.1422    2.7558 H   0  0  0  1  0  0  0  0  0  0  0  0
    0.4279    0.1883    3.8449 H   0  0  0  1  0  0  0  0  0  0  0  0
   -0.6411    2.0556    0.4489 H   0  0  0  1  0  0  0  0  0  0  0  0
    2.1179   -1.1855    4.9667 H   0  0  0  1  0  0  0  0  0  0  0  0
    1.6752   -2.5205    3.9294 H   0  0  0  1  0  0  0  0  0  0  0  0
   -0.2294   -0.7746    1.0224 H   0  0  0  1  0  0  0  0  0  0  0  0
   -0.5960   -2.4597    4.8454 H   0  0  0  1  0  0  0  0  0  0  0  0
   -0.1215   -1.1547    5.9065 H   0  0  0  1  0  0  0  0  0  0  0  0
   -0.6771   -1.6019   -0.8777 H   0  0  0  1  0  0  0  0  0  0  0  0
   -0.7947   -3.6006   -1.9546 H   0  0  0  1  0  0  0  0  0  0  0  0
   -2.6770   -4.4273    0.2674 H   0  0  0  1  0  0  0  0  0  0  0  0
   -1.2425   -5.3637   -0.0782 H   0  0  0  1  0  0  0  0  0  0  0  0
    1.5593   -2.6211    6.9360 H   0  0  0  1  0  0  0  0  0  0  0  0
    1.0446   -3.9259    5.8942 H   0  0  0  1  0  0  0  0  0  0  0  0
   -0.0512   -3.2802    7.0927 H   0  0  0  1  0  0  0  0  0  0  0  0
   -2.4076   -6.4931   -1.5986 H   0  0  0  1  0  0  0  0  0  0  0  0
   -2.5475   -5.0197   -2.5279 H   0  0  0  1  0  0  0  0  0  0  0  0
   -4.7408   -5.9060   -2.1425 H   0  0  0  1  0  0  0  0  0  0  0  0
   -4.5513   -4.4316   -1.2234 H   0  0  0  1  0  0  0  0  0  0  0  0
  1 34  1  0  0  0  0
  2  4  1  0  0  0  0
  3  4  1  0  0  0  0
  4  5  1  0  0  0  0
  4 32  1  0  0  0  0
  6 10  1  0  0  0  0
  6 26  1  0  0  0  0
  6 42  1  0  0  0  0
  7  8  1  0  0  0  0
  7  9  2  0  0  0  0
  7 13  1  0  0  0  0
  8 43  1  0  0  0  0
  8 44  1  0  0  0  0
  8 45  1  0  0  0  0
 10 46  1  0  0  0  0
 10 47  1  0  0  0  0
 10 48  1  0  0  0  0
 11 27  1  0  0  0  0
 11 49  1  0  0  0  0
 12 26  2  0  0  0  0
 13 23  1  0  0  0  0
 13 50  1  0  0  0  0
 14 41  1  0  0  0  0
 15 24  1  0  0  0  0
 15 32  4  0  0  0  0
 15 34  4  0  0  0  0
 16 41  2  0  0  0  0
 17 18  1  0  0  0  0
 17 20  1  0  0  0  0
 17 51  1  0  0  0  0
 17 52  1  0  0  0  0
 18 23  1  0  0  0  0
 18 53  1  0  0  0  0
 18 54  1  0  0  0  0
 19 21  4  0  0  0  0
 19 29  1  0  0  0  0
 19 32  4  0  0  0  0
 20 24  1  0  0  0  0
 20 55  1  0  0  0  0
 20 56  1  0  0  0  0
 21 25  1  0  0  0  0
 21 34  4  0  0  0  0
 22 27  1  0  0  0  0
 22 28  1  0  0  0  0
 22 57  1  0  0  0  0
 22 58  1  0  0  0  0
 23 26  1  0  0  0  0
 23 59  1  0  0  0  0
 24 60  1  0  0  0  0
 24 61  1  0  0  0  0
 25 35  1  0  0  0  0
 25 62  1  0  0  0  0
 25 63  1  0  0  0  0
 27 31  1  0  0  0  0
 27 64  1  0  0  0  0
 28 30  1  0  0  0  0
 28 65  1  0  0  0  0
 28 66  1  0  0  0  0
 29 31  2  0  0  0  0
 29 67  1  0  0  0  0
 30 33  1  0  0  0  0
 30 68  1  0  0  0  0
 30 69  1  0  0  0  0
 31 70  1  0  0  0  0
 33 38  1  0  0  0  0
 33 71  1  0  0  0  0
 33 72  1  0  0  0  0
 35 36  2  0  0  0  0
 35 73  1  0  0  0  0
 36 37  1  0  0  0  0
 36 74  1  0  0  0  0
 37 39  1  0  0  0  0
 37 75  1  0  0  0  0
 37 76  1  0  0  0  0
 38 77  1  0  0  0  0
 38 78  1  0  0  0  0
 38 79  1  0  0  0  0
 39 40  1  0  0  0  0
 39 80  1  0  0  0  0
 39 81  1  0  0  0  0
 40 41  1  0  0  0  0
 40 82  1  0  0  0  0
 40 83  1  0  0  0  0
M  END
> <ConfClashScore>
0 

> <ConfOneFourInteractionScore>
-0.979492 

> <ConfScore>
0.161786 

> <ConfScorePBest>
0.00307755 

> <ConfTolerance>
2.20055 

$$$$
9548876
  PyMOL2.2          3D                             0

 83 83  0  0  0  0  0  0  0  0999 V2000
   -4.9989   -1.0407   -0.1048 H   0  0  0  1  0  0  0  0  0  0  0  0
   -3.8023    3.6641    0.5942 H   0  0  0  1  0  0  0  0  0  0  0  0
   -3.4945    3.4976   -1.1175 H   0  0  0  1  0  0  0  0  0  0  0  0
   -3.1810    3.1955   -0.1401 C   0  0  0  1  0  0  0  0  0  0  0  0
   -2.1635    3.4878    0.0149 H   0  0  0  1  0  0  0  0  0  0  0  0
   -9.8880    4.5671    1.6507 N   0  0  0  1  0  0  0  0  0  0  0  0
  -12.2144    1.0664    2.2047 C   0  0  0  1  0  0  0  0  0  0  0  0
  -13.1008    0.2102    3.0881 C   0  0  0  1  0  0  0  0  0  0  0  0
  -12.5962    1.4541    1.1016 O   0  0  0  1  0  0  0  0  0  0  0  0
  -10.1920    5.8872    1.1189 C   0  0  0  1  0  0  0  0  0  0  0  0
    1.7172    1.5273    1.4759 O   0  0  0  1  0  0  0  0  0  0  0  0
  -11.4981    3.3702    0.4374 O   0  0  0  1  0  0  0  0  0  0  0  0
  -11.0051    1.3642    2.7058 N   0  0  0  1  0  0  0  0  0  0  0  0
   -0.2473   -3.2726   -6.6140 O   0  5  0  1  0  0  0  0  0  0  0  0
   -4.4723    1.0534   -0.2042 N   0  0  0  1  0  0  0  0  0  0  0  0
    1.3583   -2.1958   -5.4152 O   0  0  0  1  0  0  0  0  0  0  0  0
   -8.1931    1.8964    0.1917 C   0  0  0  1  0  0  0  0  0  0  0  0
   -9.3471    1.2281    0.9211 C   0  0  0  1  0  0  0  0  0  0  0  0
   -2.3224    0.7732    0.2853 C   0  0  0  1  0  0  0  0  0  0  0  0
   -6.9133    1.0990    0.2396 C   0  0  0  1  0  0  0  0  0  0  0  0
   -2.9417   -0.4851    0.2810 C   0  0  0  1  0  0  0  0  0  0  0  0
    2.3651    2.0071   -0.7243 C   0  0  0  1  0  0  0  0  0  0  0  0
   -9.9872    2.1192    1.9904 C   0  0  0  1  0  0  0  0  0  0  0  0
   -5.7488    1.6832   -0.5434 C   0  0  0  1  0  0  0  0  0  0  0  0
   -2.2707   -1.8091    0.5605 C   0  0  0  1  0  0  0  0  0  0  0  0
  -10.5389    3.4243    1.3132 C   0  0  0  1  0  0  0  0  0  0  0  0
    1.2590    2.2215    0.3197 C   0  0  0  1  0  0  0  0  0  0  0  0
    3.6230    2.7433   -0.4122 C   0  0  0  1  0  0  0  0  0  0  0  0
   -0.9056    0.9701    0.5670 C   0  0  0  1  0  0  0  0  0  0  0  0
    4.4526    2.2544    0.7595 C   0  0  0  1  0  0  0  0  0  0  0  0
   -0.0967    1.7520   -0.1032 C   0  0  0  1  0  0  0  0  0  0  0  0
   -3.2963    1.7150   -0.0175 C   0  0  0  1  0  0  0  0  0  0  0  0
    5.7029    3.0845    1.0005 C   0  0  0  1  0  0  0  0  0  0  0  0
   -4.2757   -0.2977   -0.0248 C   0  0  0  1  0  0  0  0  0  0  0  0
   -0.7904   -1.8641    0.4098 C   0  0  0  1  0  0  0  0  0  0  0  0
   -0.0133   -2.3918   -0.5026 C   0  0  0  1  0  0  0  0  0  0  0  0
   -0.4388   -3.1964   -1.7015 C   0  0  0  1  0  0  0  0  0  0  0  0
    6.5877    2.5339    2.1071 C   0  0  0  1  0  0  0  0  0  0  0  0
    0.0594   -2.6231   -3.0050 C   0  0  0  1  0  0  0  0  0  0  0  0
   -0.4080   -3.3471   -4.2609 C   0  0  0  1  0  0  0  0  0  0  0  0
    0.3412   -2.8683   -5.4565 C   0  0  0  1  0  0  0  0  0  0  0  0
   -9.1586    4.4978    2.3016 H   0  0  0  1  0  0  0  0  0  0  0  0
  -14.1129    0.2730    2.7464 H   0  0  0  1  0  0  0  0  0  0  0  0
  -13.0430    0.5606    4.0974 H   0  0  0  1  0  0  0  0  0  0  0  0
  -12.7722   -0.8071    3.0437 H   0  0  0  1  0  0  0  0  0  0  0  0
   -9.3490    6.2545    0.5717 H   0  0  0  1  0  0  0  0  0  0  0  0
  -10.4114    6.5547    1.9259 H   0  0  0  1  0  0  0  0  0  0  0  0
  -11.0389    5.8229    0.4681 H   0  0  0  1  0  0  0  0  0  0  0  0
    1.4520    2.0072    2.2639 H   0  0  0  1  0  0  0  0  0  0  0  0
  -10.7943    1.0534    3.6110 H   0  0  0  1  0  0  0  0  0  0  0  0
   -8.0151    2.8510    0.6410 H   0  0  0  1  0  0  0  0  0  0  0  0
   -8.4713    2.0301   -0.8328 H   0  0  0  1  0  0  0  0  0  0  0  0
   -8.9813    0.3406    1.3937 H   0  0  0  1  0  0  0  0  0  0  0  0
  -10.0967    0.9676    0.2034 H   0  0  0  1  0  0  0  0  0  0  0  0
   -7.1175    0.1243   -0.1515 H   0  0  0  1  0  0  0  0  0  0  0  0
   -6.6140    1.0175    1.2637 H   0  0  0  1  0  0  0  0  0  0  0  0
    2.0038    2.3404   -1.6747 H   0  0  0  1  0  0  0  0  0  0  0  0
    2.5871    0.9615   -0.7733 H   0  0  0  1  0  0  0  0  0  0  0  0
   -9.2210    2.4051    2.6804 H   0  0  0  1  0  0  0  0  0  0  0  0
   -5.9333    1.5430   -1.5880 H   0  0  0  1  0  0  0  0  0  0  0  0
   -5.6824    2.7295   -0.3296 H   0  0  0  1  0  0  0  0  0  0  0  0
   -2.6899   -2.5306   -0.1092 H   0  0  0  1  0  0  0  0  0  0  0  0
   -2.5023   -2.0811    1.5691 H   0  0  0  1  0  0  0  0  0  0  0  0
    1.2024    3.2688    0.5313 H   0  0  0  1  0  0  0  0  0  0  0  0
    3.3571    3.7604   -0.2133 H   0  0  0  1  0  0  0  0  0  0  0  0
    4.2432    2.7000   -1.2830 H   0  0  0  1  0  0  0  0  0  0  0  0
   -0.5027    0.4446    1.3690 H   0  0  0  1  0  0  0  0  0  0  0  0
    4.7479    1.2440    0.5680 H   0  0  0  1  0  0  0  0  0  0  0  0
    3.8475    2.2886    1.6413 H   0  0  0  1  0  0  0  0  0  0  0  0
   -0.4335    2.0822   -1.0301 H   0  0  0  1  0  0  0  0  0  0  0  0
    5.4051    4.0771    1.2666 H   0  0  0  1  0  0  0  0  0  0  0  0
    6.2712    3.1129    0.0943 H   0  0  0  1  0  0  0  0  0  0  0  0
   -0.2731   -1.3915    1.1784 H   0  0  0  1  0  0  0  0  0  0  0  0
    1.0088   -2.2383   -0.3862 H   0  0  0  1  0  0  0  0  0  0  0  0
   -1.5080   -3.2267   -1.7293 H   0  0  0  1  0  0  0  0  0  0  0  0
   -0.0559   -4.1902   -1.5981 H   0  0  0  1  0  0  0  0  0  0  0  0
    6.9189    3.3366    2.7323 H   0  0  0  1  0  0  0  0  0  0  0  0
    7.4359    2.0451    1.6752 H   0  0  0  1  0  0  0  0  0  0  0  0
    6.0311    1.8324    2.6927 H   0  0  0  1  0  0  0  0  0  0  0  0
    1.1290   -2.6485   -2.9888 H   0  0  0  1  0  0  0  0  0  0  0  0
   -0.2728   -1.6079   -3.0669 H   0  0  0  1  0  0  0  0  0  0  0  0
   -1.4522   -3.1626   -4.4041 H   0  0  0  1  0  0  0  0  0  0  0  0
   -0.2440   -4.3977   -4.1417 H   0  0  0  1  0  0  0  0  0  0  0  0
  1 34  1  0  0  0  0
  2  4  1  0  0  0  0
  3  4  1  0  0  0  0
  4  5  1  0  0  0  0
  4 32  1  0  0  0  0
  6 10  1  0  0  0  0
  6 26  1  0  0  0  0
  6 42  1  0  0  0  0
  7  8  1  0  0  0  0
  7  9  2  0  0  0  0
  7 13  1  0  0  0  0
  8 43  1  0  0  0  0
  8 44  1  0  0  0  0
  8 45  1  0  0  0  0
 10 46  1  0  0  0  0
 10 47  1  0  0  0  0
 10 48  1  0  0  0  0
 11 27  1  0  0  0  0
 11 49  1  0  0  0  0
 12 26  2  0  0  0  0
 13 23  1  0  0  0  0
 13 50  1  0  0  0  0
 14 41  1  0  0  0  0
 15 24  1  0  0  0  0
 15 32  4  0  0  0  0
 15 34  4  0  0  0  0
 16 41  2  0  0  0  0
 17 18  1  0  0  0  0
 17 20  1  0  0  0  0
 17 51  1  0  0  0  0
 17 52  1  0  0  0  0
 18 23  1  0  0  0  0
 18 53  1  0  0  0  0
 18 54  1  0  0  0  0
 19 21  4  0  0  0  0
 19 29  1  0  0  0  0
 19 32  4  0  0  0  0
 20 24  1  0  0  0  0
 20 55  1  0  0  0  0
 20 56  1  0  0  0  0
 21 25  1  0  0  0  0
 21 34  4  0  0  0  0
 22 27  1  0  0  0  0
 22 28  1  0  0  0  0
 22 57  1  0  0  0  0
 22 58  1  0  0  0  0
 23 26  1  0  0  0  0
 23 59  1  0  0  0  0
 24 60  1  0  0  0  0
 24 61  1  0  0  0  0
 25 35  1  0  0  0  0
 25 62  1  0  0  0  0
 25 63  1  0  0  0  0
 27 31  1  0  0  0  0
 27 64  1  0  0  0  0
 28 30  1  0  0  0  0
 28 65  1  0  0  0  0
 28 66  1  0  0  0  0
 29 31  2  0  0  0  0
 29 67  1  0  0  0  0
 30 33  1  0  0  0  0
 30 68  1  0  0  0  0
 30 69  1  0  0  0  0
 31 70  1  0  0  0  0
 33 38  1  0  0  0  0
 33 71  1  0  0  0  0
 33 72  1  0  0  0  0
 35 36  2  0  0  0  0
 35 73  1  0  0  0  0
 36 37  1  0  0  0  0
 36 74  1  0  0  0  0
 37 39  1  0  0  0  0
 37 75  1  0  0  0  0
 37 76  1  0  0  0  0
 38 77  1  0  0  0  0
 38 78  1  0  0  0  0
 38 79  1  0  0  0  0
 39 40  1  0  0  0  0
 39 80  1  0  0  0  0
 39 81  1  0  0  0  0
 40 41  1  0  0  0  0
 40 82  1  0  0  0  0
 40 83  1  0  0  0  0
M  END
> <ConfClashScore>
0 

> <ConfOneFourInteractionScore>
-0.993475 

> <ConfScore>
0.163835 

> <ConfScorePBest>
0.00304907 

> <ConfTolerance>
2.02862 

$$$$
9548876
  PyMOL2.2          3D                             0

 83 83  0  0  0  0  0  0  0  0999 V2000
   -5.0276   -1.0150   -0.0722 H   0  0  0  1  0  0  0  0  0  0  0  0
   -4.0646    3.6393    0.2872 H   0  0  0  1  0  0  0  0  0  0  0  0
   -3.1120    3.4555   -1.1658 H   0  0  0  1  0  0  0  0  0  0  0  0
   -3.1876    3.1917   -0.1316 C   0  0  0  1  0  0  0  0  0  0  0  0
   -2.3231    3.5444    0.3911 H   0  0  0  1  0  0  0  0  0  0  0  0
   -9.4183    4.1392   -4.6741 N   0  0  0  1  0  0  0  0  0  0  0  0
  -11.7438    1.6989   -2.1372 C   0  0  0  1  0  0  0  0  0  0  0  0
  -12.7769    0.5893   -2.1652 C   0  0  0  1  0  0  0  0  0  0  0  0
  -11.9174    2.7252   -1.4812 O   0  0  0  1  0  0  0  0  0  0  0  0
   -9.0522    4.6652   -5.9807 C   0  0  0  1  0  0  0  0  0  0  0  0
    1.6932    0.6987    1.4732 O   0  0  0  1  0  0  0  0  0  0  0  0
   -8.9389    2.0318   -5.2662 O   0  0  0  1  0  0  0  0  0  0  0  0
  -10.6577    1.4435   -2.8824 N   0  0  0  1  0  0  0  0  0  0  0  0
    2.7457   -4.7523    1.3657 O   0  5  0  1  0  0  0  0  0  0  0  0
   -4.4658    1.0699   -0.1721 N   0  0  0  1  0  0  0  0  0  0  0  0
    2.3077   -5.1568    3.5610 O   0  0  0  1  0  0  0  0  0  0  0  0
   -7.0243    2.6721   -2.5798 C   0  0  0  1  0  0  0  0  0  0  0  0
   -8.2438    1.7979   -2.4239 C   0  0  0  1  0  0  0  0  0  0  0  0
   -2.3133    0.7499    0.2803 C   0  0  0  1  0  0  0  0  0  0  0  0
   -5.7306    2.0768   -2.0819 C   0  0  0  1  0  0  0  0  0  0  0  0
   -2.9548   -0.4973    0.2814 C   0  0  0  1  0  0  0  0  0  0  0  0
    2.1348   -0.9227   -0.3016 C   0  0  0  1  0  0  0  0  0  0  0  0
   -9.5486    2.3783   -2.9850 C   0  0  0  1  0  0  0  0  0  0  0  0
   -5.7188    1.6722   -0.6286 C   0  0  0  1  0  0  0  0  0  0  0  0
   -2.2501   -1.8106    0.5524 C   0  0  0  1  0  0  0  0  0  0  0  0
   -9.3037    2.8324   -4.4209 C   0  0  0  1  0  0  0  0  0  0  0  0
    1.4938    0.4135    0.0945 C   0  0  0  1  0  0  0  0  0  0  0  0
    3.6466   -0.8624   -0.1459 C   0  0  0  1  0  0  0  0  0  0  0  0
   -0.8906    0.9828    0.5325 C   0  0  0  1  0  0  0  0  0  0  0  0
    4.3549   -2.1100   -0.6511 C   0  0  0  1  0  0  0  0  0  0  0  0
    0.0197    0.3213   -0.1415 C   0  0  0  1  0  0  0  0  0  0  0  0
   -3.2753    1.7099   -0.0025 C   0  0  0  1  0  0  0  0  0  0  0  0
    4.5302   -1.9859   -2.1558 C   0  0  0  1  0  0  0  0  0  0  0  0
   -4.2901   -0.2852   -0.0013 C   0  0  0  1  0  0  0  0  0  0  0  0
   -2.9362   -2.6895    1.5392 C   0  0  0  1  0  0  0  0  0  0  0  0
   -2.3437   -3.0585    2.6472 C   0  0  0  1  0  0  0  0  0  0  0  0
   -1.1031   -2.4625    3.2535 C   0  0  0  1  0  0  0  0  0  0  0  0
    5.3609   -3.1062   -2.7602 C   0  0  0  1  0  0  0  0  0  0  0  0
   -0.0215   -3.4937    3.5311 C   0  0  0  1  0  0  0  0  0  0  0  0
    0.9045   -3.6387    2.3345 C   0  0  0  1  0  0  0  0  0  0  0  0
    2.0378   -4.5890    2.5154 C   0  0  0  1  0  0  0  0  0  0  0  0
   -9.7496    4.7448   -3.9785 H   0  0  0  1  0  0  0  0  0  0  0  0
  -12.5910   -0.0506   -3.0024 H   0  0  0  1  0  0  0  0  0  0  0  0
  -13.7548    1.0149   -2.2521 H   0  0  0  1  0  0  0  0  0  0  0  0
  -12.7138    0.0207   -1.2610 H   0  0  0  1  0  0  0  0  0  0  0  0
   -8.0431    5.0200   -5.9529 H   0  0  0  1  0  0  0  0  0  0  0  0
   -9.7068    5.4721   -6.2363 H   0  0  0  1  0  0  0  0  0  0  0  0
   -9.1375    3.8903   -6.7136 H   0  0  0  1  0  0  0  0  0  0  0  0
    1.1162    1.4187    1.7382 H   0  0  0  1  0  0  0  0  0  0  0  0
  -10.6102    0.5974   -3.3747 H   0  0  0  1  0  0  0  0  0  0  0  0
   -7.1984    3.5798   -2.0406 H   0  0  0  1  0  0  0  0  0  0  0  0
   -6.9071    2.8917   -3.6204 H   0  0  0  1  0  0  0  0  0  0  0  0
   -8.3868    1.6150   -1.3794 H   0  0  0  1  0  0  0  0  0  0  0  0
   -8.0522    0.8724   -2.9256 H   0  0  0  1  0  0  0  0  0  0  0  0
   -4.9566    2.8009   -2.2287 H   0  0  0  1  0  0  0  0  0  0  0  0
   -5.5212    1.2065   -2.6681 H   0  0  0  1  0  0  0  0  0  0  0  0
    1.8955   -1.1378   -1.3220 H   0  0  0  1  0  0  0  0  0  0  0  0
    1.7480   -1.6974    0.3270 H   0  0  0  1  0  0  0  0  0  0  0  0
   -9.7858    3.2480   -2.4086 H   0  0  0  1  0  0  0  0  0  0  0  0
   -5.9035    2.5452   -0.0381 H   0  0  0  1  0  0  0  0  0  0  0  0
   -6.5051    0.9633   -0.4737 H   0  0  0  1  0  0  0  0  0  0  0  0
   -1.2704   -1.5932    0.9237 H   0  0  0  1  0  0  0  0  0  0  0  0
   -2.1715   -2.3442   -0.3717 H   0  0  0  1  0  0  0  0  0  0  0  0
    1.9023    1.1922   -0.5152 H   0  0  0  1  0  0  0  0  0  0  0  0
    3.8762   -0.7387    0.8918 H   0  0  0  1  0  0  0  0  0  0  0  0
    4.0109   -0.0196   -0.6953 H   0  0  0  1  0  0  0  0  0  0  0  0
   -0.5997    1.6769    1.2502 H   0  0  0  1  0  0  0  0  0  0  0  0
    3.7672   -2.9753   -0.4260 H   0  0  0  1  0  0  0  0  0  0  0  0
    5.3126   -2.1968   -0.1818 H   0  0  0  1  0  0  0  0  0  0  0  0
   -0.3079   -0.3148   -0.8963 H   0  0  0  1  0  0  0  0  0  0  0  0
    5.0132   -1.0544   -2.3655 H   0  0  0  1  0  0  0  0  0  0  0  0
    3.5624   -1.9971   -2.6121 H   0  0  0  1  0  0  0  0  0  0  0  0
   -3.9041   -3.0164    1.3449 H   0  0  0  1  0  0  0  0  0  0  0  0
   -2.7782   -3.8496    3.1640 H   0  0  0  1  0  0  0  0  0  0  0  0
   -1.3681   -1.9900    4.1762 H   0  0  0  1  0  0  0  0  0  0  0  0
   -0.7112   -1.7314    2.5776 H   0  0  0  1  0  0  0  0  0  0  0  0
    4.7763   -4.0015   -2.8024 H   0  0  0  1  0  0  0  0  0  0  0  0
    6.2269   -3.2743   -2.1547 H   0  0  0  1  0  0  0  0  0  0  0  0
    5.6641   -2.8316   -3.7489 H   0  0  0  1  0  0  0  0  0  0  0  0
   -0.4812   -4.4380    3.7355 H   0  0  0  1  0  0  0  0  0  0  0  0
    0.5495   -3.1831    4.3810 H   0  0  0  1  0  0  0  0  0  0  0  0
    1.3138   -2.6748    2.1151 H   0  0  0  1  0  0  0  0  0  0  0  0
    0.3202   -3.9761    1.5040 H   0  0  0  1  0  0  0  0  0  0  0  0
  1 34  1  0  0  0  0
  2  4  1  0  0  0  0
  3  4  1  0  0  0  0
  4  5  1  0  0  0  0
  4 32  1  0  0  0  0
  6 10  1  0  0  0  0
  6 26  1  0  0  0  0
  6 42  1  0  0  0  0
  7  8  1  0  0  0  0
  7  9  2  0  0  0  0
  7 13  1  0  0  0  0
  8 43  1  0  0  0  0
  8 44  1  0  0  0  0
  8 45  1  0  0  0  0
 10 46  1  0  0  0  0
 10 47  1  0  0  0  0
 10 48  1  0  0  0  0
 11 27  1  0  0  0  0
 11 49  1  0  0  0  0
 12 26  2  0  0  0  0
 13 23  1  0  0  0  0
 13 50  1  0  0  0  0
 14 41  1  0  0  0  0
 15 24  1  0  0  0  0
 15 32  4  0  0  0  0
 15 34  4  0  0  0  0
 16 41  2  0  0  0  0
 17 18  1  0  0  0  0
 17 20  1  0  0  0  0
 17 51  1  0  0  0  0
 17 52  1  0  0  0  0
 18 23  1  0  0  0  0
 18 53  1  0  0  0  0
 18 54  1  0  0  0  0
 19 21  4  0  0  0  0
 19 29  1  0  0  0  0
 19 32  4  0  0  0  0
 20 24  1  0  0  0  0
 20 55  1  0  0  0  0
 20 56  1  0  0  0  0
 21 25  1  0  0  0  0
 21 34  4  0  0  0  0
 22 27  1  0  0  0  0
 22 28  1  0  0  0  0
 22 57  1  0  0  0  0
 22 58  1  0  0  0  0
 23 26  1  0  0  0  0
 23 59  1  0  0  0  0
 24 60  1  0  0  0  0
 24 61  1  0  0  0  0
 25 35  1  0  0  0  0
 25 62  1  0  0  0  0
 25 63  1  0  0  0  0
 27 31  1  0  0  0  0
 27 64  1  0  0  0  0
 28 30  1  0  0  0  0
 28 65  1  0  0  0  0
 28 66  1  0  0  0  0
 29 31  2  0  0  0  0
 29 67  1  0  0  0  0
 30 33  1  0  0  0  0
 30 68  1  0  0  0  0
 30 69  1  0  0  0  0
 31 70  1  0  0  0  0
 33 38  1  0  0  0  0
 33 71  1  0  0  0  0
 33 72  1  0  0  0  0
 35 36  2  0  0  0  0
 35 73  1  0  0  0  0
 36 37  1  0  0  0  0
 36 74  1  0  0  0  0
 37 39  1  0  0  0  0
 37 75  1  0  0  0  0
 37 76  1  0  0  0  0
 38 77  1  0  0  0  0
 38 78  1  0  0  0  0
 38 79  1  0  0  0  0
 39 40  1  0  0  0  0
 39 80  1  0  0  0  0
 39 81  1  0  0  0  0
 40 41  1  0  0  0  0
 40 82  1  0  0  0  0
 40 83  1  0  0  0  0
M  END
> <ConfClashScore>
0 

> <ConfOneFourInteractionScore>
-0.990404 

> <ConfScore>
0.166886 

> <ConfScorePBest>
0.00302059 

> <ConfTolerance>
1.90194 

$$$$
9548876
  PyMOL2.2          3D                             0

 83 83  0  0  0  0  0  0  0  0999 V2000
   -5.0132   -1.0518   -0.0485 H   0  0  0  1  0  0  0  0  0  0  0  0
   -3.4185    3.6557    0.8022 H   0  0  0  1  0  0  0  0  0  0  0  0
   -3.7992    3.5588   -0.9002 H   0  0  0  1  0  0  0  0  0  0  0  0
   -3.1595    3.1901   -0.1257 C   0  0  0  1  0  0  0  0  0  0  0  0
   -2.1415    3.4156   -0.3658 H   0  0  0  1  0  0  0  0  0  0  0  0
   -6.0563    2.5041    5.9532 N   0  0  0  1  0  0  0  0  0  0  0  0
   -9.0969    3.8771    5.4006 C   0  0  0  1  0  0  0  0  0  0  0  0
   -9.5383    5.1139    6.1586 C   0  0  0  1  0  0  0  0  0  0  0  0
   -9.7550    2.8406    5.4336 O   0  0  0  1  0  0  0  0  0  0  0  0
   -4.9660    1.9427    6.7367 C   0  0  0  1  0  0  0  0  0  0  0  0
    1.5638    2.2014   -1.3427 O   0  0  0  1  0  0  0  0  0  0  0  0
   -5.5048    1.4398    4.0600 O   0  0  0  1  0  0  0  0  0  0  0  0
   -7.9610    3.9957    4.7073 N   0  0  0  1  0  0  0  0  0  0  0  0
   -2.3387   -4.6257    2.1093 O   0  5  0  1  0  0  0  0  0  0  0  0
   -4.5008    1.0448   -0.1688 N   0  0  0  1  0  0  0  0  0  0  0  0
   -0.9186   -4.8018    3.8777 O   0  0  0  1  0  0  0  0  0  0  0  0
   -6.6096    2.2323    1.6139 C   0  0  0  1  0  0  0  0  0  0  0  0
   -7.0081    3.3658    2.5450 C   0  0  0  1  0  0  0  0  0  0  0  0
   -2.3415    0.7802    0.2872 C   0  0  0  1  0  0  0  0  0  0  0  0
   -6.2373    2.7683    0.2412 C   0  0  0  1  0  0  0  0  0  0  0  0
   -2.9534   -0.4818    0.3004 C   0  0  0  1  0  0  0  0  0  0  0  0
    1.7216    1.7762    1.0563 C   0  0  0  1  0  0  0  0  0  0  0  0
   -7.3957    2.8914    3.9465 C   0  0  0  1  0  0  0  0  0  0  0  0
   -5.7408    1.6486   -0.6576 C   0  0  0  1  0  0  0  0  0  0  0  0
   -2.2615   -1.8124    0.4800 C   0  0  0  1  0  0  0  0  0  0  0  0
   -6.2134    2.2358    4.6538 C   0  0  0  1  0  0  0  0  0  0  0  0
    1.3837    1.2377   -0.3293 C   0  0  0  1  0  0  0  0  0  0  0  0
    1.5577    0.7015    2.1023 C   0  0  0  1  0  0  0  0  0  0  0  0
   -0.9249    1.0491    0.5375 C   0  0  0  1  0  0  0  0  0  0  0  0
    2.1267    1.0259    3.4613 C   0  0  0  1  0  0  0  0  0  0  0  0
   -0.0168    0.7195   -0.3560 C   0  0  0  1  0  0  0  0  0  0  0  0
   -3.3258    1.7143   -0.0053 C   0  0  0  1  0  0  0  0  0  0  0  0
    1.8750   -0.0139    4.5411 C   0  0  0  1  0  0  0  0  0  0  0  0
   -4.2932   -0.3040    0.0153 C   0  0  0  1  0  0  0  0  0  0  0  0
   -0.9773   -1.9526   -0.2740 C   0  0  0  1  0  0  0  0  0  0  0  0
    0.2185   -2.1280    0.2300 C   0  0  0  1  0  0  0  0  0  0  0  0
    0.5020   -2.5382    1.6489 C   0  0  0  1  0  0  0  0  0  0  0  0
    2.6191    0.2697    5.8358 C   0  0  0  1  0  0  0  0  0  0  0  0
    1.0282   -3.9629    1.7643 C   0  0  0  1  0  0  0  0  0  0  0  0
   -0.0589   -5.0184    1.6435 C   0  0  0  1  0  0  0  0  0  0  0  0
   -1.1150   -4.8094    2.6736 C   0  0  0  1  0  0  0  0  0  0  0  0
   -6.6977    3.0997    6.3940 H   0  0  0  1  0  0  0  0  0  0  0  0
   -9.1224    5.9841    5.6953 H   0  0  0  1  0  0  0  0  0  0  0  0
   -9.1976    5.0519    7.1710 H   0  0  0  1  0  0  0  0  0  0  0  0
  -10.6062    5.1785    6.1444 H   0  0  0  1  0  0  0  0  0  0  0  0
   -5.1714    0.9144    6.9492 H   0  0  0  1  0  0  0  0  0  0  0  0
   -4.8710    2.4843    7.6546 H   0  0  0  1  0  0  0  0  0  0  0  0
   -4.0538    2.0168    6.1823 H   0  0  0  1  0  0  0  0  0  0  0  0
    1.7811    1.7617   -2.1680 H   0  0  0  1  0  0  0  0  0  0  0  0
   -7.4922    4.8563    4.7113 H   0  0  0  1  0  0  0  0  0  0  0  0
   -7.4314    1.5543    1.5148 H   0  0  0  1  0  0  0  0  0  0  0  0
   -5.7690    1.7165    2.0290 H   0  0  0  1  0  0  0  0  0  0  0  0
   -7.8442    3.8783    2.1170 H   0  0  0  1  0  0  0  0  0  0  0  0
   -6.1819    4.0402    2.6314 H   0  0  0  1  0  0  0  0  0  0  0  0
   -5.4649    3.5010    0.3482 H   0  0  0  1  0  0  0  0  0  0  0  0
   -7.0988    3.2200   -0.2046 H   0  0  0  1  0  0  0  0  0  0  0  0
    1.0672    2.5913    1.2852 H   0  0  0  1  0  0  0  0  0  0  0  0
    2.7351    2.1194    1.0618 H   0  0  0  1  0  0  0  0  0  0  0  0
   -8.1522    2.1437    3.8309 H   0  0  0  1  0  0  0  0  0  0  0  0
   -6.4942    0.8906   -0.7091 H   0  0  0  1  0  0  0  0  0  0  0  0
   -5.5664    2.0459   -1.6357 H   0  0  0  1  0  0  0  0  0  0  0  0
   -2.9277   -2.5821    0.1504 H   0  0  0  1  0  0  0  0  0  0  0  0
   -2.0529   -1.9422    1.5214 H   0  0  0  1  0  0  0  0  0  0  0  0
    2.0362    0.4111   -0.5187 H   0  0  0  1  0  0  0  0  0  0  0  0
    2.0421   -0.1830    1.7447 H   0  0  0  1  0  0  0  0  0  0  0  0
    0.5110    0.5129    2.2197 H   0  0  0  1  0  0  0  0  0  0  0  0
   -0.6341    1.5034    1.4267 H   0  0  0  1  0  0  0  0  0  0  0  0
    1.6963    1.9498    3.7868 H   0  0  0  1  0  0  0  0  0  0  0  0
    3.1851    1.1422    3.3562 H   0  0  0  1  0  0  0  0  0  0  0  0
   -0.2877    0.0660   -1.1183 H   0  0  0  1  0  0  0  0  0  0  0  0
    2.1874   -0.9685    4.1723 H   0  0  0  1  0  0  0  0  0  0  0  0
    0.8260   -0.0379    4.7510 H   0  0  0  1  0  0  0  0  0  0  0  0
   -1.0410   -1.9056   -1.3110 H   0  0  0  1  0  0  0  0  0  0  0  0
    1.0329   -1.9721   -0.3978 H   0  0  0  1  0  0  0  0  0  0  0  0
   -0.4043   -2.4632    2.2126 H   0  0  0  1  0  0  0  0  0  0  0  0
    1.2326   -1.8713    2.0567 H   0  0  0  1  0  0  0  0  0  0  0  0
    3.6679    0.1207    5.6850 H   0  0  0  1  0  0  0  0  0  0  0  0
    2.2712   -0.3940    6.5996 H   0  0  0  1  0  0  0  0  0  0  0  0
    2.4422    1.2819    6.1343 H   0  0  0  1  0  0  0  0  0  0  0  0
    1.5035   -4.0729    2.7166 H   0  0  0  1  0  0  0  0  0  0  0  0
    1.7452   -4.1238    0.9865 H   0  0  0  1  0  0  0  0  0  0  0  0
    0.3758   -5.9868    1.7782 H   0  0  0  1  0  0  0  0  0  0  0  0
   -0.5007   -4.9573    0.6708 H   0  0  0  1  0  0  0  0  0  0  0  0
  1 34  1  0  0  0  0
  2  4  1  0  0  0  0
  3  4  1  0  0  0  0
  4  5  1  0  0  0  0
  4 32  1  0  0  0  0
  6 10  1  0  0  0  0
  6 26  1  0  0  0  0
  6 42  1  0  0  0  0
  7  8  1  0  0  0  0
  7  9  2  0  0  0  0
  7 13  1  0  0  0  0
  8 43  1  0  0  0  0
  8 44  1  0  0  0  0
  8 45  1  0  0  0  0
 10 46  1  0  0  0  0
 10 47  1  0  0  0  0
 10 48  1  0  0  0  0
 11 27  1  0  0  0  0
 11 49  1  0  0  0  0
 12 26  2  0  0  0  0
 13 23  1  0  0  0  0
 13 50  1  0  0  0  0
 14 41  1  0  0  0  0
 15 24  1  0  0  0  0
 15 32  4  0  0  0  0
 15 34  4  0  0  0  0
 16 41  2  0  0  0  0
 17 18  1  0  0  0  0
 17 20  1  0  0  0  0
 17 51  1  0  0  0  0
 17 52  1  0  0  0  0
 18 23  1  0  0  0  0
 18 53  1  0  0  0  0
 18 54  1  0  0  0  0
 19 21  4  0  0  0  0
 19 29  1  0  0  0  0
 19 32  4  0  0  0  0
 20 24  1  0  0  0  0
 20 55  1  0  0  0  0
 20 56  1  0  0  0  0
 21 25  1  0  0  0  0
 21 34  4  0  0  0  0
 22 27  1  0  0  0  0
 22 28  1  0  0  0  0
 22 57  1  0  0  0  0
 22 58  1  0  0  0  0
 23 26  1  0  0  0  0
 23 59  1  0  0  0  0
 24 60  1  0  0  0  0
 24 61  1  0  0  0  0
 25 35  1  0  0  0  0
 25 62  1  0  0  0  0
 25 63  1  0  0  0  0
 27 31  1  0  0  0  0
 27 64  1  0  0  0  0
 28 30  1  0  0  0  0
 28 65  1  0  0  0  0
 28 66  1  0  0  0  0
 29 31  2  0  0  0  0
 29 67  1  0  0  0  0
 30 33  1  0  0  0  0
 30 68  1  0  0  0  0
 30 69  1  0  0  0  0
 31 70  1  0  0  0  0
 33 38  1  0  0  0  0
 33 71  1  0  0  0  0
 33 72  1  0  0  0  0
 35 36  2  0  0  0  0
 35 73  1  0  0  0  0
 36 37  1  0  0  0  0
 36 74  1  0  0  0  0
 37 39  1  0  0  0  0
 37 75  1  0  0  0  0
 37 76  1  0  0  0  0
 38 77  1  0  0  0  0
 38 78  1  0  0  0  0
 38 79  1  0  0  0  0
 39 40  1  0  0  0  0
 39 80  1  0  0  0  0
 39 81  1  0  0  0  0
 40 41  1  0  0  0  0
 40 82  1  0  0  0  0
 40 83  1  0  0  0  0
M  END
> <ConfClashScore>
0 

> <ConfOneFourInteractionScore>
-0.988166 

> <ConfScore>
0.169186 

> <ConfScorePBest>
0.00299211 

> <ConfTolerance>
2.3642 

$$$$
9548876
  PyMOL2.2          3D                             0

 83 83  0  0  0  0  0  0  0  0999 V2000
   -4.9930   -1.0645   -0.1428 H   0  0  0  1  0  0  0  0  0  0  0  0
   -2.3525    3.5042    0.4854 H   0  0  0  1  0  0  0  0  0  0  0  0
   -4.0622    3.6686    0.1652 H   0  0  0  1  0  0  0  0  0  0  0  0
   -3.1582    3.1862   -0.1429 C   0  0  0  1  0  0  0  0  0  0  0  0
   -2.9425    3.4466   -1.1581 H   0  0  0  1  0  0  0  0  0  0  0  0
   -7.4161    5.4809   -3.0449 N   0  0  0  1  0  0  0  0  0  0  0  0
  -10.4130    3.5252   -5.6555 C   0  0  0  1  0  0  0  0  0  0  0  0
  -10.8363    3.4871   -7.1065 C   0  0  0  1  0  0  0  0  0  0  0  0
  -11.2498    3.5770   -4.7552 O   0  0  0  1  0  0  0  0  0  0  0  0
   -6.2917    6.3600   -2.7608 C   0  0  0  1  0  0  0  0  0  0  0  0
    1.6880    1.8794    1.1061 O   0  0  0  1  0  0  0  0  0  0  0  0
   -6.3553    4.3197   -4.6410 O   0  0  0  1  0  0  0  0  0  0  0  0
   -9.1076    3.5010   -5.3823 N   0  0  0  1  0  0  0  0  0  0  0  0
   -0.2325   -0.8491    7.4647 O   0  5  0  1  0  0  0  0  0  0  0  0
   -4.4869    1.0348   -0.2385 N   0  0  0  1  0  0  0  0  0  0  0  0
    0.7517    0.5299    5.9245 O   0  0  0  1  0  0  0  0  0  0  0  0
   -7.6734    2.1595   -2.0978 C   0  0  0  1  0  0  0  0  0  0  0  0
   -8.0902    2.1692   -3.5477 C   0  0  0  1  0  0  0  0  0  0  0  0
   -2.3430    0.7787    0.2891 C   0  0  0  1  0  0  0  0  0  0  0  0
   -6.2678    1.6554   -1.8830 C   0  0  0  1  0  0  0  0  0  0  0  0
   -2.9489   -0.4862    0.2773 C   0  0  0  1  0  0  0  0  0  0  0  0
    2.0452   -0.4182    1.5915 C   0  0  0  1  0  0  0  0  0  0  0  0
   -8.5344    3.5515   -4.0437 C   0  0  0  1  0  0  0  0  0  0  0  0
   -5.7750    1.6934   -0.4576 C   0  0  0  1  0  0  0  0  0  0  0  0
   -2.2689   -1.8023    0.5721 C   0  0  0  1  0  0  0  0  0  0  0  0
   -7.3477    4.5066   -3.9565 C   0  0  0  1  0  0  0  0  0  0  0  0
    1.5036    0.5844    0.5712 C   0  0  0  1  0  0  0  0  0  0  0  0
    3.5266   -0.1835    1.8441 C   0  0  0  1  0  0  0  0  0  0  0  0
   -0.9422    1.0523    0.5867 C   0  0  0  1  0  0  0  0  0  0  0  0
    4.0727   -0.9863    3.0110 C   0  0  0  1  0  0  0  0  0  0  0  0
    0.0712    0.2856    0.2614 C   0  0  0  1  0  0  0  0  0  0  0  0
   -3.3213    1.7093   -0.0332 C   0  0  0  1  0  0  0  0  0  0  0  0
    5.5714   -0.8407    3.1919 C   0  0  0  1  0  0  0  0  0  0  0  0
   -4.2792   -0.3137   -0.0521 C   0  0  0  1  0  0  0  0  0  0  0  0
   -2.7023   -2.3824    1.8809 C   0  0  0  1  0  0  0  0  0  0  0  0
   -1.9275   -2.7812    2.8669 C   0  0  0  1  0  0  0  0  0  0  0  0
   -0.4657   -2.4740    3.0530 C   0  0  0  1  0  0  0  0  0  0  0  0
    6.0208   -1.4766    4.4973 C   0  0  0  1  0  0  0  0  0  0  0  0
   -0.1598   -1.1802    3.7962 C   0  0  0  1  0  0  0  0  0  0  0  0
   -0.7956   -1.1128    5.1752 C   0  0  0  1  0  0  0  0  0  0  0  0
   -0.0067   -0.3829    6.2072 C   0  0  0  1  0  0  0  0  0  0  0  0
   -8.2525    5.6080   -2.5503 H   0  0  0  1  0  0  0  0  0  0  0  0
   -9.9764    3.3389   -7.7257 H   0  0  0  1  0  0  0  0  0  0  0  0
  -11.3064    4.4129   -7.3650 H   0  0  0  1  0  0  0  0  0  0  0  0
  -11.5258    2.6825   -7.2556 H   0  0  0  1  0  0  0  0  0  0  0  0
   -5.5019    5.7957   -2.3105 H   0  0  0  1  0  0  0  0  0  0  0  0
   -6.6042    7.1332   -2.0905 H   0  0  0  1  0  0  0  0  0  0  0  0
   -5.9421    6.7975   -3.6725 H   0  0  0  1  0  0  0  0  0  0  0  0
    2.5598    2.2032    0.8681 H   0  0  0  1  0  0  0  0  0  0  0  0
   -8.4873    3.4450   -6.1389 H   0  0  0  1  0  0  0  0  0  0  0  0
   -8.3465    1.5288   -1.5555 H   0  0  0  1  0  0  0  0  0  0  0  0
   -7.7370    3.1585   -1.7199 H   0  0  0  1  0  0  0  0  0  0  0  0
   -8.9048    1.4865   -3.6711 H   0  0  0  1  0  0  0  0  0  0  0  0
   -7.2606    1.8462   -4.1413 H   0  0  0  1  0  0  0  0  0  0  0  0
   -5.6086    2.2548   -2.4756 H   0  0  0  1  0  0  0  0  0  0  0  0
   -6.2267    0.6404   -2.2190 H   0  0  0  1  0  0  0  0  0  0  0  0
    1.9061   -1.4105    1.2162 H   0  0  0  1  0  0  0  0  0  0  0  0
    1.5104   -0.3061    2.5115 H   0  0  0  1  0  0  0  0  0  0  0  0
   -9.2846    3.9078   -3.3690 H   0  0  0  1  0  0  0  0  0  0  0  0
   -5.6793    2.7182   -0.1653 H   0  0  0  1  0  0  0  0  0  0  0  0
   -6.5045    1.2124    0.1600 H   0  0  0  1  0  0  0  0  0  0  0  0
   -1.2109   -1.6448    0.5988 H   0  0  0  1  0  0  0  0  0  0  0  0
   -2.5073   -2.4953   -0.2075 H   0  0  0  1  0  0  0  0  0  0  0  0
    2.0709    0.4821   -0.3302 H   0  0  0  1  0  0  0  0  0  0  0  0
    3.6754    0.8562    2.0484 H   0  0  0  1  0  0  0  0  0  0  0  0
    4.0683   -0.4553    0.9622 H   0  0  0  1  0  0  0  0  0  0  0  0
   -0.7282    1.9306    1.1009 H   0  0  0  1  0  0  0  0  0  0  0  0
    3.8497   -2.0197    2.8457 H   0  0  0  1  0  0  0  0  0  0  0  0
    3.5892   -0.6553    3.9063 H   0  0  0  1  0  0  0  0  0  0  0  0
   -0.1369   -0.5957   -0.2501 H   0  0  0  1  0  0  0  0  0  0  0  0
    5.8241    0.1990    3.2028 H   0  0  0  1  0  0  0  0  0  0  0  0
    6.0715   -1.3213    2.3771 H   0  0  0  1  0  0  0  0  0  0  0  0
   -3.7271   -2.4814    2.0275 H   0  0  0  1  0  0  0  0  0  0  0  0
   -2.3735   -3.3727    3.5968 H   0  0  0  1  0  0  0  0  0  0  0  0
   -0.0154   -2.4126    2.0843 H   0  0  0  1  0  0  0  0  0  0  0  0
   -0.0259   -3.2812    3.6007 H   0  0  0  1  0  0  0  0  0  0  0  0
    5.4356   -2.3517    4.6883 H   0  0  0  1  0  0  0  0  0  0  0  0
    5.8898   -0.7784    5.2975 H   0  0  0  1  0  0  0  0  0  0  0  0
    7.0535   -1.7472    4.4249 H   0  0  0  1  0  0  0  0  0  0  0  0
   -0.5248   -0.3601    3.2139 H   0  0  0  1  0  0  0  0  0  0  0  0
    0.9010   -1.0954    3.9072 H   0  0  0  1  0  0  0  0  0  0  0  0
   -0.9430   -2.1149    5.5201 H   0  0  0  1  0  0  0  0  0  0  0  0
   -1.7432   -0.6254    5.0783 H   0  0  0  1  0  0  0  0  0  0  0  0
  1 34  1  0  0  0  0
  2  4  1  0  0  0  0
  3  4  1  0  0  0  0
  4  5  1  0  0  0  0
  4 32  1  0  0  0  0
  6 10  1  0  0  0  0
  6 26  1  0  0  0  0
  6 42  1  0  0  0  0
  7  8  1  0  0  0  0
  7  9  2  0  0  0  0
  7 13  1  0  0  0  0
  8 43  1  0  0  0  0
  8 44  1  0  0  0  0
  8 45  1  0  0  0  0
 10 46  1  0  0  0  0
 10 47  1  0  0  0  0
 10 48  1  0  0  0  0
 11 27  1  0  0  0  0
 11 49  1  0  0  0  0
 12 26  2  0  0  0  0
 13 23  1  0  0  0  0
 13 50  1  0  0  0  0
 14 41  1  0  0  0  0
 15 24  1  0  0  0  0
 15 32  4  0  0  0  0
 15 34  4  0  0  0  0
 16 41  2  0  0  0  0
 17 18  1  0  0  0  0
 17 20  1  0  0  0  0
 17 51  1  0  0  0  0
 17 52  1  0  0  0  0
 18 23  1  0  0  0  0
 18 53  1  0  0  0  0
 18 54  1  0  0  0  0
 19 21  4  0  0  0  0
 19 29  1  0  0  0  0
 19 32  4  0  0  0  0
 20 24  1  0  0  0  0
 20 55  1  0  0  0  0
 20 56  1  0  0  0  0
 21 25  1  0  0  0  0
 21 34  4  0  0  0  0
 22 27  1  0  0  0  0
 22 28  1  0  0  0  0
 22 57  1  0  0  0  0
 22 58  1  0  0  0  0
 23 26  1  0  0  0  0
 23 59  1  0  0  0  0
 24 60  1  0  0  0  0
 24 61  1  0  0  0  0
 25 35  1  0  0  0  0
 25 62  1  0  0  0  0
 25 63  1  0  0  0  0
 27 31  1  0  0  0  0
 27 64  1  0  0  0  0
 28 30  1  0  0  0  0
 28 65  1  0  0  0  0
 28 66  1  0  0  0  0
 29 31  2  0  0  0  0
 29 67  1  0  0  0  0
 30 33  1  0  0  0  0
 30 68  1  0  0  0  0
 30 69  1  0  0  0  0
 31 70  1  0  0  0  0
 33 38  1  0  0  0  0
 33 71  1  0  0  0  0
 33 72  1  0  0  0  0
 35 36  2  0  0  0  0
 35 73  1  0  0  0  0
 36 37  1  0  0  0  0
 36 74  1  0  0  0  0
 37 39  1  0  0  0  0
 37 75  1  0  0  0  0
 37 76  1  0  0  0  0
 38 77  1  0  0  0  0
 38 78  1  0  0  0  0
 38 79  1  0  0  0  0
 39 40  1  0  0  0  0
 39 80  1  0  0  0  0
 39 81  1  0  0  0  0
 40 41  1  0  0  0  0
 40 82  1  0  0  0  0
 40 83  1  0  0  0  0
M  END
> <ConfClashScore>
0 

> <ConfOneFourInteractionScore>
-0.990173 

> <ConfScore>
0.170487 

> <ConfScorePBest>
0.00296363 

> <ConfTolerance>
2.13232 

$$$$
9548876
  PyMOL2.2          3D                             0

 83 83  0  0  0  0  0  0  0  0999 V2000
   -5.0104   -1.0316   -0.1064 H   0  0  0  1  0  0  0  0  0  0  0  0
   -4.0218    3.5828   -0.6504 H   0  0  0  1  0  0  0  0  0  0  0  0
   -2.2815    3.4326   -0.6898 H   0  0  0  1  0  0  0  0  0  0  0  0
   -3.1667    3.1935   -0.1383 C   0  0  0  1  0  0  0  0  0  0  0  0
   -3.1077    3.6277    0.8378 H   0  0  0  1  0  0  0  0  0  0  0  0
   -5.2472    3.7473    4.8483 N   0  0  0  1  0  0  0  0  0  0  0  0
   -8.7439    1.8451    5.8190 C   0  0  0  1  0  0  0  0  0  0  0  0
   -9.5492    1.1593    6.9054 C   0  0  0  1  0  0  0  0  0  0  0  0
   -9.1505    2.8783    5.2891 O   0  0  0  1  0  0  0  0  0  0  0  0
   -4.8102    5.1128    5.0977 C   0  0  0  1  0  0  0  0  0  0  0  0
    1.8745    0.8223    2.4894 O   0  0  0  1  0  0  0  0  0  0  0  0
   -7.4299    4.1672    4.4659 O   0  0  0  1  0  0  0  0  0  0  0  0
   -7.5766    1.2916    5.4540 N   0  0  0  1  0  0  0  0  0  0  0  0
    0.4899   -5.0389    0.1314 O   0  5  0  1  0  0  0  0  0  0  0  0
   -4.4710    1.0594   -0.2043 N   0  0  0  1  0  0  0  0  0  0  0  0
   -1.1101   -5.9011   -1.2366 O   0  0  0  1  0  0  0  0  0  0  0  0
   -6.3709    1.9109    1.9094 C   0  0  0  1  0  0  0  0  0  0  0  0
   -7.3275    1.6168    3.0489 C   0  0  0  1  0  0  0  0  0  0  0  0
   -2.3231    0.7659    0.2863 C   0  0  0  1  0  0  0  0  0  0  0  0
   -6.7792    1.3588    0.5533 C   0  0  0  1  0  0  0  0  0  0  0  0
   -2.9501   -0.4887    0.2808 C   0  0  0  1  0  0  0  0  0  0  0  0
    2.0702   -1.0072    0.9622 C   0  0  0  1  0  0  0  0  0  0  0  0
   -6.7233    1.8794    4.4321 C   0  0  0  1  0  0  0  0  0  0  0  0
   -5.7675    1.6466   -0.5439 C   0  0  0  1  0  0  0  0  0  0  0  0
   -2.2873   -1.8169    0.5601 C   0  0  0  1  0  0  0  0  0  0  0  0
   -6.5094    3.3796    4.6102 C   0  0  0  1  0  0  0  0  0  0  0  0
    1.3786    0.3183    1.2418 C   0  0  0  1  0  0  0  0  0  0  0  0
    3.5761   -0.8260    0.9012 C   0  0  0  1  0  0  0  0  0  0  0  0
   -0.9131    1.0152    0.5610 C   0  0  0  1  0  0  0  0  0  0  0  0
    4.2418   -0.4482    2.2105 C   0  0  0  1  0  0  0  0  0  0  0  0
   -0.1139    0.2202    1.2315 C   0  0  0  1  0  0  0  0  0  0  0  0
   -3.2911    1.7137   -0.0166 C   0  0  0  1  0  0  0  0  0  0  0  0
    5.7577   -0.3460    2.1682 C   0  0  0  1  0  0  0  0  0  0  0  0
   -4.2827   -0.2930   -0.0256 C   0  0  0  1  0  0  0  0  0  0  0  0
   -2.7766   -2.4376    1.8300 C   0  0  0  1  0  0  0  0  0  0  0  0
   -3.3008   -3.6288    1.9752 C   0  0  0  1  0  0  0  0  0  0  0  0
   -3.5737   -4.5909    0.8520 C   0  0  0  1  0  0  0  0  0  0  0  0
    6.3211   -0.1130    3.5606 C   0  0  0  1  0  0  0  0  0  0  0  0
   -2.9394   -5.9240    1.0579 C   0  0  0  1  0  0  0  0  0  0  0  0
   -1.4229   -5.9778    1.1454 C   0  0  0  1  0  0  0  0  0  0  0  0
   -0.6985   -5.6526   -0.1153 C   0  0  0  1  0  0  0  0  0  0  0  0
   -4.5643    3.0445    4.8557 H   0  0  0  1  0  0  0  0  0  0  0  0
   -8.9626    0.3814    7.3478 H   0  0  0  1  0  0  0  0  0  0  0  0
  -10.4362    0.7386    6.4798 H   0  0  0  1  0  0  0  0  0  0  0  0
   -9.8172    1.8739    7.6553 H   0  0  0  1  0  0  0  0  0  0  0  0
   -4.2717    5.1524    6.0215 H   0  0  0  1  0  0  0  0  0  0  0  0
   -5.6638    5.7554    5.1549 H   0  0  0  1  0  0  0  0  0  0  0  0
   -4.1737    5.4346    4.3001 H   0  0  0  1  0  0  0  0  0  0  0  0
    1.8569    1.7821    2.4770 H   0  0  0  1  0  0  0  0  0  0  0  0
   -7.2891    0.4628    5.8909 H   0  0  0  1  0  0  0  0  0  0  0  0
   -5.4188    1.4931    2.1622 H   0  0  0  1  0  0  0  0  0  0  0  0
   -6.2822    2.9734    1.8195 H   0  0  0  1  0  0  0  0  0  0  0  0
   -7.6144    0.5875    2.9939 H   0  0  0  1  0  0  0  0  0  0  0  0
   -8.1928    2.2355    2.9337 H   0  0  0  1  0  0  0  0  0  0  0  0
   -7.7147    1.7980    0.2759 H   0  0  0  1  0  0  0  0  0  0  0  0
   -6.8940    0.2985    0.6393 H   0  0  0  1  0  0  0  0  0  0  0  0
    1.7250   -1.3924    0.0256 H   0  0  0  1  0  0  0  0  0  0  0  0
    1.8314   -1.6990    1.7428 H   0  0  0  1  0  0  0  0  0  0  0  0
   -5.7654    1.4039    4.4671 H   0  0  0  1  0  0  0  0  0  0  0  0
   -6.1154    1.2260   -1.4642 H   0  0  0  1  0  0  0  0  0  0  0  0
   -5.6576    2.7052   -0.6541 H   0  0  0  1  0  0  0  0  0  0  0  0
   -1.2308   -1.6653    0.6357 H   0  0  0  1  0  0  0  0  0  0  0  0
   -2.4954   -2.4828   -0.2512 H   0  0  0  1  0  0  0  0  0  0  0  0
    1.6619    0.9972    0.4648 H   0  0  0  1  0  0  0  0  0  0  0  0
    3.7867   -0.0549    0.1899 H   0  0  0  1  0  0  0  0  0  0  0  0
    4.0056   -1.7473    0.5670 H   0  0  0  1  0  0  0  0  0  0  0  0
   -0.5062    1.8991    0.1938 H   0  0  0  1  0  0  0  0  0  0  0  0
    3.9816   -1.1884    2.9381 H   0  0  0  1  0  0  0  0  0  0  0  0
    3.8557    0.5024    2.5142 H   0  0  0  1  0  0  0  0  0  0  0  0
   -0.5504   -0.5347    1.7983 H   0  0  0  1  0  0  0  0  0  0  0  0
    6.0368    0.4707    1.5357 H   0  0  0  1  0  0  0  0  0  0  0  0
    6.1599   -1.2561    1.7747 H   0  0  0  1  0  0  0  0  0  0  0  0
   -2.6913   -1.8605    2.6910 H   0  0  0  1  0  0  0  0  0  0  0  0
   -3.5466   -3.9321    2.9391 H   0  0  0  1  0  0  0  0  0  0  0  0
   -3.1954   -4.1704   -0.0563 H   0  0  0  1  0  0  0  0  0  0  0  0
   -4.6319   -4.7265    0.7692 H   0  0  0  1  0  0  0  0  0  0  0  0
    6.4995   -1.0549    4.0359 H   0  0  0  1  0  0  0  0  0  0  0  0
    5.6196    0.4509    4.1392 H   0  0  0  1  0  0  0  0  0  0  0  0
    7.2407    0.4289    3.4869 H   0  0  0  1  0  0  0  0  0  0  0  0
   -3.2347   -6.5482    0.2406 H   0  0  0  1  0  0  0  0  0  0  0  0
   -3.3267   -6.3246    1.9714 H   0  0  0  1  0  0  0  0  0  0  0  0
   -1.1442   -6.9679    1.4403 H   0  0  0  1  0  0  0  0  0  0  0  0
   -1.1106   -5.2807    1.8948 H   0  0  0  1  0  0  0  0  0  0  0  0
  1 34  1  0  0  0  0
  2  4  1  0  0  0  0
  3  4  1  0  0  0  0
  4  5  1  0  0  0  0
  4 32  1  0  0  0  0
  6 10  1  0  0  0  0
  6 26  1  0  0  0  0
  6 42  1  0  0  0  0
  7  8  1  0  0  0  0
  7  9  2  0  0  0  0
  7 13  1  0  0  0  0
  8 43  1  0  0  0  0
  8 44  1  0  0  0  0
  8 45  1  0  0  0  0
 10 46  1  0  0  0  0
 10 47  1  0  0  0  0
 10 48  1  0  0  0  0
 11 27  1  0  0  0  0
 11 49  1  0  0  0  0
 12 26  2  0  0  0  0
 13 23  1  0  0  0  0
 13 50  1  0  0  0  0
 14 41  1  0  0  0  0
 15 24  1  0  0  0  0
 15 32  4  0  0  0  0
 15 34  4  0  0  0  0
 16 41  2  0  0  0  0
 17 18  1  0  0  0  0
 17 20  1  0  0  0  0
 17 51  1  0  0  0  0
 17 52  1  0  0  0  0
 18 23  1  0  0  0  0
 18 53  1  0  0  0  0
 18 54  1  0  0  0  0
 19 21  4  0  0  0  0
 19 29  1  0  0  0  0
 19 32  4  0  0  0  0
 20 24  1  0  0  0  0
 20 55  1  0  0  0  0
 20 56  1  0  0  0  0
 21 25  1  0  0  0  0
 21 34  4  0  0  0  0
 22 27  1  0  0  0  0
 22 28  1  0  0  0  0
 22 57  1  0  0  0  0
 22 58  1  0  0  0  0
 23 26  1  0  0  0  0
 23 59  1  0  0  0  0
 24 60  1  0  0  0  0
 24 61  1  0  0  0  0
 25 35  1  0  0  0  0
 25 62  1  0  0  0  0
 25 63  1  0  0  0  0
 27 31  1  0  0  0  0
 27 64  1  0  0  0  0
 28 30  1  0  0  0  0
 28 65  1  0  0  0  0
 28 66  1  0  0  0  0
 29 31  2  0  0  0  0
 29 67  1  0  0  0  0
 30 33  1  0  0  0  0
 30 68  1  0  0  0  0
 30 69  1  0  0  0  0
 31 70  1  0  0  0  0
 33 38  1  0  0  0  0
 33 71  1  0  0  0  0
 33 72  1  0  0  0  0
 35 36  2  0  0  0  0
 35 73  1  0  0  0  0
 36 37  1  0  0  0  0
 36 74  1  0  0  0  0
 37 39  1  0  0  0  0
 37 75  1  0  0  0  0
 37 76  1  0  0  0  0
 38 77  1  0  0  0  0
 38 78  1  0  0  0  0
 38 79  1  0  0  0  0
 39 40  1  0  0  0  0
 39 80  1  0  0  0  0
 39 81  1  0  0  0  0
 40 41  1  0  0  0  0
 40 82  1  0  0  0  0
 40 83  1  0  0  0  0
M  END
> <ConfClashScore>
0 

> <ConfOneFourInteractionScore>
-0.992574 

> <ConfScore>
0.173441 

> <ConfScorePBest>
0.00293515 

> <ConfTolerance>
2.24735 

$$$$
9548876
  PyMOL2.2          3D                             0

 83 83  0  0  0  0  0  0  0  0999 V2000
   -5.0145   -1.0405   -0.1141 H   0  0  0  1  0  0  0  0  0  0  0  0
   -2.2285    3.4249   -0.5895 H   0  0  0  1  0  0  0  0  0  0  0  0
   -3.2077    3.6209    0.8442 H   0  0  0  1  0  0  0  0  0  0  0  0
   -3.1640    3.1816   -0.1305 C   0  0  0  1  0  0  0  0  0  0  0  0
   -3.9647    3.5618   -0.7299 H   0  0  0  1  0  0  0  0  0  0  0  0
   -9.5440    6.4195   -2.6915 N   0  0  0  1  0  0  0  0  0  0  0  0
   -7.2392    4.1719   -5.1886 C   0  0  0  1  0  0  0  0  0  0  0  0
   -7.0815    3.5666   -6.5699 C   0  0  0  1  0  0  0  0  0  0  0  0
   -6.3912    4.9148   -4.7223 O   0  0  0  1  0  0  0  0  0  0  0  0
   -9.4882    7.8636   -2.5195 C   0  0  0  1  0  0  0  0  0  0  0  0
    1.8749    1.4595    0.6098 O   0  0  0  1  0  0  0  0  0  0  0  0
   -7.3445    6.3372   -3.1835 O   0  0  0  1  0  0  0  0  0  0  0  0
   -8.3540    3.8379   -4.5324 N   0  0  0  1  0  0  0  0  0  0  0  0
   -6.7718   -8.3434   -0.5932 O   0  5  0  1  0  0  0  0  0  0  0  0
   -4.4717    1.0498   -0.2045 N   0  0  0  1  0  0  0  0  0  0  0  0
   -7.2017   -7.0534    1.2466 O   0  0  0  1  0  0  0  0  0  0  0  0
   -7.4792    2.0916   -2.3531 C   0  0  0  1  0  0  0  0  0  0  0  0
   -7.5004    3.6088   -2.2476 C   0  0  0  1  0  0  0  0  0  0  0  0
   -2.3245    0.7512    0.2862 C   0  0  0  1  0  0  0  0  0  0  0  0
   -6.1327    1.4811   -1.9959 C   0  0  0  1  0  0  0  0  0  0  0  0
   -2.9535   -0.5023    0.2762 C   0  0  0  1  0  0  0  0  0  0  0  0
    1.4024    3.4192   -0.7221 C   0  0  0  1  0  0  0  0  0  0  0  0
   -8.5478    4.2670   -3.1553 C   0  0  0  1  0  0  0  0  0  0  0  0
   -5.7429    1.6908   -0.5426 C   0  0  0  1  0  0  0  0  0  0  0  0
   -2.2931   -1.8326    0.5512 C   0  0  0  1  0  0  0  0  0  0  0  0
   -8.4216    5.7831   -3.0382 C   0  0  0  1  0  0  0  0  0  0  0  0
    1.0747    2.6287    0.5505 C   0  0  0  1  0  0  0  0  0  0  0  0
    1.1377    2.6397   -2.0011 C   0  0  0  1  0  0  0  0  0  0  0  0
   -0.9324    1.1035    0.5482 C   0  0  0  1  0  0  0  0  0  0  0  0
    1.5088    3.4582   -3.2127 C   0  0  0  1  0  0  0  0  0  0  0  0
   -0.3720    2.2690    0.5802 C   0  0  0  1  0  0  0  0  0  0  0  0
   -3.2908    1.7016   -0.0139 C   0  0  0  1  0  0  0  0  0  0  0  0
    1.1409    2.7897   -4.5273 C   0  0  0  1  0  0  0  0  0  0  0  0
   -4.2857   -0.3034   -0.0303 C   0  0  0  1  0  0  0  0  0  0  0  0
   -2.8384   -2.5636    1.7309 C   0  0  0  1  0  0  0  0  0  0  0  0
   -3.4535   -3.7183    1.7855 C   0  0  0  1  0  0  0  0  0  0  0  0
   -3.8336   -4.5984    0.6267 C   0  0  0  1  0  0  0  0  0  0  0  0
    1.4704    3.6356   -5.7464 C   0  0  0  1  0  0  0  0  0  0  0  0
   -5.1839   -5.2783    0.8117 C   0  0  0  1  0  0  0  0  0  0  0  0
   -5.2101   -6.6250    0.1073 C   0  0  0  1  0  0  0  0  0  0  0  0
   -6.4893   -7.3627    0.3057 C   0  0  0  1  0  0  0  0  0  0  0  0
  -10.3810    5.9280   -2.5568 H   0  0  0  1  0  0  0  0  0  0  0  0
   -7.8976    3.8740   -7.1898 H   0  0  0  1  0  0  0  0  0  0  0  0
   -7.0748    2.4994   -6.4927 H   0  0  0  1  0  0  0  0  0  0  0  0
   -6.1608    3.8993   -7.0018 H   0  0  0  1  0  0  0  0  0  0  0  0
   -9.6592    8.3423   -3.4610 H   0  0  0  1  0  0  0  0  0  0  0  0
   -8.5237    8.1413   -2.1484 H   0  0  0  1  0  0  0  0  0  0  0  0
  -10.2405    8.1688   -1.8226 H   0  0  0  1  0  0  0  0  0  0  0  0
    1.4752    0.7702    0.0744 H   0  0  0  1  0  0  0  0  0  0  0  0
   -9.0428    3.3028   -4.9793 H   0  0  0  1  0  0  0  0  0  0  0  0
   -7.7196    1.8181   -3.3592 H   0  0  0  1  0  0  0  0  0  0  0  0
   -8.2184    1.6950   -1.6888 H   0  0  0  1  0  0  0  0  0  0  0  0
   -6.5346    3.9812   -2.5186 H   0  0  0  1  0  0  0  0  0  0  0  0
   -7.7145    3.8754   -1.2338 H   0  0  0  1  0  0  0  0  0  0  0  0
   -5.3830    1.9267   -2.6159 H   0  0  0  1  0  0  0  0  0  0  0  0
   -6.1756    0.4293   -2.1873 H   0  0  0  1  0  0  0  0  0  0  0  0
    2.4376    3.6885   -0.6971 H   0  0  0  1  0  0  0  0  0  0  0  0
    0.8029    4.3054   -0.7348 H   0  0  0  1  0  0  0  0  0  0  0  0
   -9.5216    3.9761   -2.8207 H   0  0  0  1  0  0  0  0  0  0  0  0
   -5.6567    2.7414   -0.3589 H   0  0  0  1  0  0  0  0  0  0  0  0
   -6.5099    1.2809    0.0807 H   0  0  0  1  0  0  0  0  0  0  0  0
   -1.2506   -1.6593    0.7187 H   0  0  0  1  0  0  0  0  0  0  0  0
   -2.4180   -2.4520   -0.3122 H   0  0  0  1  0  0  0  0  0  0  0  0
    1.2838    3.2526    1.3943 H   0  0  0  1  0  0  0  0  0  0  0  0
    0.0985    2.3901   -2.0511 H   0  0  0  1  0  0  0  0  0  0  0  0
    1.7205    1.7423   -1.9920 H   0  0  0  1  0  0  0  0  0  0  0  0
   -0.2988    0.3006    0.7366 H   0  0  0  1  0  0  0  0  0  0  0  0
    2.5660    3.6229   -3.2001 H   0  0  0  1  0  0  0  0  0  0  0  0
    1.0003    4.3979   -3.1560 H   0  0  0  1  0  0  0  0  0  0  0  0
   -1.0277    3.0744    0.6348 H   0  0  0  1  0  0  0  0  0  0  0  0
    0.0892    2.5929   -4.5251 H   0  0  0  1  0  0  0  0  0  0  0  0
    1.6769    1.8665   -4.6000 H   0  0  0  1  0  0  0  0  0  0  0  0
   -2.7114   -2.0856    2.6457 H   0  0  0  1  0  0  0  0  0  0  0  0
   -3.7066   -4.0644    2.7330 H   0  0  0  1  0  0  0  0  0  0  0  0
   -3.0846   -5.3540    0.5128 H   0  0  0  1  0  0  0  0  0  0  0  0
   -3.8729   -3.9982   -0.2583 H   0  0  0  1  0  0  0  0  0  0  0  0
    0.7401    4.4105   -5.8515 H   0  0  0  1  0  0  0  0  0  0  0  0
    1.4638    3.0187   -6.6206 H   0  0  0  1  0  0  0  0  0  0  0  0
    2.4394    4.0731   -5.6253 H   0  0  0  1  0  0  0  0  0  0  0  0
   -5.9503   -4.6535    0.4027 H   0  0  0  1  0  0  0  0  0  0  0  0
   -5.3626   -5.4253    1.8564 H   0  0  0  1  0  0  0  0  0  0  0  0
   -4.4090   -7.2239    0.4876 H   0  0  0  1  0  0  0  0  0  0  0  0
   -5.0690   -6.4638   -0.9410 H   0  0  0  1  0  0  0  0  0  0  0  0
  1 34  1  0  0  0  0
  2  4  1  0  0  0  0
  3  4  1  0  0  0  0
  4  5  1  0  0  0  0
  4 32  1  0  0  0  0
  6 10  1  0  0  0  0
  6 26  1  0  0  0  0
  6 42  1  0  0  0  0
  7  8  1  0  0  0  0
  7  9  2  0  0  0  0
  7 13  1  0  0  0  0
  8 43  1  0  0  0  0
  8 44  1  0  0  0  0
  8 45  1  0  0  0  0
 10 46  1  0  0  0  0
 10 47  1  0  0  0  0
 10 48  1  0  0  0  0
 11 27  1  0  0  0  0
 11 49  1  0  0  0  0
 12 26  2  0  0  0  0
 13 23  1  0  0  0  0
 13 50  1  0  0  0  0
 14 41  1  0  0  0  0
 15 24  1  0  0  0  0
 15 32  4  0  0  0  0
 15 34  4  0  0  0  0
 16 41  2  0  0  0  0
 17 18  1  0  0  0  0
 17 20  1  0  0  0  0
 17 51  1  0  0  0  0
 17 52  1  0  0  0  0
 18 23  1  0  0  0  0
 18 53  1  0  0  0  0
 18 54  1  0  0  0  0
 19 21  4  0  0  0  0
 19 29  1  0  0  0  0
 19 32  4  0  0  0  0
 20 24  1  0  0  0  0
 20 55  1  0  0  0  0
 20 56  1  0  0  0  0
 21 25  1  0  0  0  0
 21 34  4  0  0  0  0
 22 27  1  0  0  0  0
 22 28  1  0  0  0  0
 22 57  1  0  0  0  0
 22 58  1  0  0  0  0
 23 26  1  0  0  0  0
 23 59  1  0  0  0  0
 24 60  1  0  0  0  0
 24 61  1  0  0  0  0
 25 35  1  0  0  0  0
 25 62  1  0  0  0  0
 25 63  1  0  0  0  0
 27 31  1  0  0  0  0
 27 64  1  0  0  0  0
 28 30  1  0  0  0  0
 28 65  1  0  0  0  0
 28 66  1  0  0  0  0
 29 31  2  0  0  0  0
 29 67  1  0  0  0  0
 30 33  1  0  0  0  0
 30 68  1  0  0  0  0
 30 69  1  0  0  0  0
 31 70  1  0  0  0  0
 33 38  1  0  0  0  0
 33 71  1  0  0  0  0
 33 72  1  0  0  0  0
 35 36  2  0  0  0  0
 35 73  1  0  0  0  0
 36 37  1  0  0  0  0
 36 74  1  0  0  0  0
 37 39  1  0  0  0  0
 37 75  1  0  0  0  0
 37 76  1  0  0  0  0
 38 77  1  0  0  0  0
 38 78  1  0  0  0  0
 38 79  1  0  0  0  0
 39 40  1  0  0  0  0
 39 80  1  0  0  0  0
 39 81  1  0  0  0  0
 40 41  1  0  0  0  0
 40 82  1  0  0  0  0
 40 83  1  0  0  0  0
M  END
> <ConfClashScore>
0 

> <ConfOneFourInteractionScore>
-0.98966 

> <ConfScore>
0.174539 

> <ConfScorePBest>
0.00290666 

> <ConfTolerance>
2.41031 

$$$$
9548876
  PyMOL2.2          3D                             0

 83 83  0  0  0  0  0  0  0  0999 V2000
   -5.0076   -1.0478   -0.1081 H   0  0  0  1  0  0  0  0  0  0  0  0
   -3.4653    3.5176   -1.1004 H   0  0  0  1  0  0  0  0  0  0  0  0
   -2.1188    3.4444    0.0105 H   0  0  0  1  0  0  0  0  0  0  0  0
   -3.1490    3.1925   -0.1313 C   0  0  0  1  0  0  0  0  0  0  0  0
   -3.7412    3.6757    0.6175 H   0  0  0  1  0  0  0  0  0  0  0  0
   -8.7149    4.0427   -5.1940 N   0  0  0  1  0  0  0  0  0  0  0  0
   -9.7094    6.8224   -1.9329 C   0  0  0  1  0  0  0  0  0  0  0  0
  -10.3410    7.0849   -0.5796 C   0  0  0  1  0  0  0  0  0  0  0  0
   -9.9473    7.5302   -2.8977 O   0  0  0  1  0  0  0  0  0  0  0  0
   -9.3528    2.9493   -5.9120 C   0  0  0  1  0  0  0  0  0  0  0  0
    1.5099    3.0715    2.0754 O   0  0  0  1  0  0  0  0  0  0  0  0
  -10.0812    3.8422   -3.4292 O   0  0  0  1  0  0  0  0  0  0  0  0
   -8.8881    5.7607   -1.9481 N   0  0  0  1  0  0  0  0  0  0  0  0
   -2.4475   -5.7533   -0.3971 O   0  5  0  1  0  0  0  0  0  0  0  0
   -4.4914    1.0488   -0.2081 N   0  0  0  1  0  0  0  0  0  0  0  0
   -1.5947   -4.2391   -1.8397 O   0  0  0  1  0  0  0  0  0  0  0  0
   -7.0129    3.3140   -1.9961 C   0  0  0  1  0  0  0  0  0  0  0  0
   -6.8564    4.6355   -2.7307 C   0  0  0  1  0  0  0  0  0  0  0  0
   -2.3399    0.7794    0.2806 C   0  0  0  1  0  0  0  0  0  0  0  0
   -5.6788    2.8472   -1.4369 C   0  0  0  1  0  0  0  0  0  0  0  0
   -2.9531   -0.4820    0.2768 C   0  0  0  1  0  0  0  0  0  0  0  0
    1.2546    1.0478    3.2886 C   0  0  0  1  0  0  0  0  0  0  0  0
   -8.1805    5.2565   -3.1417 C   0  0  0  1  0  0  0  0  0  0  0  0
   -5.7946    1.6215   -0.5469 C   0  0  0  1  0  0  0  0  0  0  0  0
   -2.2754   -1.8026    0.5564 C   0  0  0  1  0  0  0  0  0  0  0  0
   -9.0949    4.3388   -3.9478 C   0  0  0  1  0  0  0  0  0  0  0  0
    1.0153    1.7391    1.9440 C   0  0  0  1  0  0  0  0  0  0  0  0
    0.7222    1.6723    4.5640 C   0  0  0  1  0  0  0  0  0  0  0  0
   -0.9309    1.0447    0.5541 C   0  0  0  1  0  0  0  0  0  0  0  0
    1.2592    3.0701    4.8200 C   0  0  0  1  0  0  0  0  0  0  0  0
   -0.4217    1.7592    1.5292 C   0  0  0  1  0  0  0  0  0  0  0  0
   -3.3186    1.7162   -0.0220 C   0  0  0  1  0  0  0  0  0  0  0  0
    0.6114    3.6788    6.0529 C   0  0  0  1  0  0  0  0  0  0  0  0
   -4.2881   -0.3012   -0.0285 C   0  0  0  1  0  0  0  0  0  0  0  0
   -0.9911   -1.6942    1.3062 C   0  0  0  1  0  0  0  0  0  0  0  0
    0.2280   -1.9889    0.9225 C   0  0  0  1  0  0  0  0  0  0  0  0
    0.5892   -2.5903   -0.4079 C   0  0  0  1  0  0  0  0  0  0  0  0
    1.0428    5.1126    6.3146 C   0  0  0  1  0  0  0  0  0  0  0  0
    0.8597   -4.0859   -0.3949 C   0  0  0  1  0  0  0  0  0  0  0  0
   -0.3153   -4.9063    0.1118 C   0  0  0  1  0  0  0  0  0  0  0  0
   -1.4772   -4.8998   -0.8209 C   0  0  0  1  0  0  0  0  0  0  0  0
   -8.0052    4.5628   -5.6254 H   0  0  0  1  0  0  0  0  0  0  0  0
   -9.6068    6.9571    0.1881 H   0  0  0  1  0  0  0  0  0  0  0  0
  -11.1450    6.3967   -0.4220 H   0  0  0  1  0  0  0  0  0  0  0  0
  -10.7170    8.0863   -0.5500 H   0  0  0  1  0  0  0  0  0  0  0  0
  -10.1203    3.3391   -6.5475 H   0  0  0  1  0  0  0  0  0  0  0  0
   -9.7837    2.2657   -5.2107 H   0  0  0  1  0  0  0  0  0  0  0  0
   -8.6233    2.4393   -6.5059 H   0  0  0  1  0  0  0  0  0  0  0  0
    2.1391    3.2505    1.3728 H   0  0  0  1  0  0  0  0  0  0  0  0
   -8.7475    5.2844   -1.1032 H   0  0  0  1  0  0  0  0  0  0  0  0
   -7.3856    2.5767   -2.6760 H   0  0  0  1  0  0  0  0  0  0  0  0
   -7.7061    3.4402   -1.1909 H   0  0  0  1  0  0  0  0  0  0  0  0
   -6.2728    4.4669   -3.6116 H   0  0  0  1  0  0  0  0  0  0  0  0
   -6.3445    5.3218   -2.0890 H   0  0  0  1  0  0  0  0  0  0  0  0
   -5.2540    3.6442   -0.8631 H   0  0  0  1  0  0  0  0  0  0  0  0
   -5.0313    2.6121   -2.2556 H   0  0  0  1  0  0  0  0  0  0  0  0
    2.3143    0.9590    3.4066 H   0  0  0  1  0  0  0  0  0  0  0  0
    0.8202    0.0726    3.2168 H   0  0  0  1  0  0  0  0  0  0  0  0
   -7.9541    6.0976   -3.7632 H   0  0  0  1  0  0  0  0  0  0  0  0
   -6.2922    1.9008    0.3582 H   0  0  0  1  0  0  0  0  0  0  0  0
   -6.3725    0.8800   -1.0580 H   0  0  0  1  0  0  0  0  0  0  0  0
   -2.0758   -2.2802   -0.3800 H   0  0  0  1  0  0  0  0  0  0  0  0
   -2.9466   -2.4073    1.1298 H   0  0  0  1  0  0  0  0  0  0  0  0
    1.5769    1.2197    1.1958 H   0  0  0  1  0  0  0  0  0  0  0  0
    0.9966    1.0472    5.3880 H   0  0  0  1  0  0  0  0  0  0  0  0
   -0.3443    1.7258    4.4960 H   0  0  0  1  0  0  0  0  0  0  0  0
   -0.2486    0.6157   -0.1032 H   0  0  0  1  0  0  0  0  0  0  0  0
    1.0486    3.6876    3.9719 H   0  0  0  1  0  0  0  0  0  0  0  0
    2.3174    3.0175    4.9695 H   0  0  0  1  0  0  0  0  0  0  0  0
   -1.0650    2.3864    2.0530 H   0  0  0  1  0  0  0  0  0  0  0  0
    0.8749    3.0847    6.9029 H   0  0  0  1  0  0  0  0  0  0  0  0
   -0.4504    3.6627    5.9212 H   0  0  0  1  0  0  0  0  0  0  0  0
   -1.0744   -1.3311    2.2772 H   0  0  0  1  0  0  0  0  0  0  0  0
    1.0028   -1.7921    1.5879 H   0  0  0  1  0  0  0  0  0  0  0  0
    1.4702   -2.0986   -0.7641 H   0  0  0  1  0  0  0  0  0  0  0  0
   -0.2200   -2.4070   -1.0835 H   0  0  0  1  0  0  0  0  0  0  0  0
    0.8226    5.3724    7.3290 H   0  0  0  1  0  0  0  0  0  0  0  0
    0.5145    5.7697    5.6558 H   0  0  0  1  0  0  0  0  0  0  0  0
    2.0949    5.2051    6.1433 H   0  0  0  1  0  0  0  0  0  0  0  0
    1.7020   -4.2728    0.2379 H   0  0  0  1  0  0  0  0  0  0  0  0
    1.0863   -4.3983   -1.3929 H   0  0  0  1  0  0  0  0  0  0  0  0
   -0.6310   -4.5046    1.0519 H   0  0  0  1  0  0  0  0  0  0  0  0
    0.0081   -5.9174    0.2460 H   0  0  0  1  0  0  0  0  0  0  0  0
  1 34  1  0  0  0  0
  2  4  1  0  0  0  0
  3  4  1  0  0  0  0
  4  5  1  0  0  0  0
  4 32  1  0  0  0  0
  6 10  1  0  0  0  0
  6 26  1  0  0  0  0
  6 42  1  0  0  0  0
  7  8  1  0  0  0  0
  7  9  2  0  0  0  0
  7 13  1  0  0  0  0
  8 43  1  0  0  0  0
  8 44  1  0  0  0  0
  8 45  1  0  0  0  0
 10 46  1  0  0  0  0
 10 47  1  0  0  0  0
 10 48  1  0  0  0  0
 11 27  1  0  0  0  0
 11 49  1  0  0  0  0
 12 26  2  0  0  0  0
 13 23  1  0  0  0  0
 13 50  1  0  0  0  0
 14 41  1  0  0  0  0
 15 24  1  0  0  0  0
 15 32  4  0  0  0  0
 15 34  4  0  0  0  0
 16 41  2  0  0  0  0
 17 18  1  0  0  0  0
 17 20  1  0  0  0  0
 17 51  1  0  0  0  0
 17 52  1  0  0  0  0
 18 23  1  0  0  0  0
 18 53  1  0  0  0  0
 18 54  1  0  0  0  0
 19 21  4  0  0  0  0
 19 29  1  0  0  0  0
 19 32  4  0  0  0  0
 20 24  1  0  0  0  0
 20 55  1  0  0  0  0
 20 56  1  0  0  0  0
 21 25  1  0  0  0  0
 21 34  4  0  0  0  0
 22 27  1  0  0  0  0
 22 28  1  0  0  0  0
 22 57  1  0  0  0  0
 22 58  1  0  0  0  0
 23 26  1  0  0  0  0
 23 59  1  0  0  0  0
 24 60  1  0  0  0  0
 24 61  1  0  0  0  0
 25 35  1  0  0  0  0
 25 62  1  0  0  0  0
 25 63  1  0  0  0  0
 27 31  1  0  0  0  0
 27 64  1  0  0  0  0
 28 30  1  0  0  0  0
 28 65  1  0  0  0  0
 28 66  1  0  0  0  0
 29 31  2  0  0  0  0
 29 67  1  0  0  0  0
 30 33  1  0  0  0  0
 30 68  1  0  0  0  0
 30 69  1  0  0  0  0
 31 70  1  0  0  0  0
 33 38  1  0  0  0  0
 33 71  1  0  0  0  0
 33 72  1  0  0  0  0
 35 36  2  0  0  0  0
 35 73  1  0  0  0  0
 36 37  1  0  0  0  0
 36 74  1  0  0  0  0
 37 39  1  0  0  0  0
 37 75  1  0  0  0  0
 37 76  1  0  0  0  0
 38 77  1  0  0  0  0
 38 78  1  0  0  0  0
 38 79  1  0  0  0  0
 39 40  1  0  0  0  0
 39 80  1  0  0  0  0
 39 81  1  0  0  0  0
 40 41  1  0  0  0  0
 40 82  1  0  0  0  0
 40 83  1  0  0  0  0
M  END
> <ConfClashScore>
0 

> <ConfOneFourInteractionScore>
-0.989704 

> <ConfScore>
0.190119 

> <ConfScorePBest>
0.00287818 

> <ConfTolerance>
2.15453 

$$$$
9548876
  PyMOL2.2          3D                             0

 83 83  0  0  0  0  0  0  0  0999 V2000
   -5.0040   -1.0467   -0.1028 H   0  0  0  1  0  0  0  0  0  0  0  0
   -4.1330    3.6006   -0.3953 H   0  0  0  1  0  0  0  0  0  0  0  0
   -2.4717    3.4253   -0.9069 H   0  0  0  1  0  0  0  0  0  0  0  0
   -3.1797    3.1867   -0.1409 C   0  0  0  1  0  0  0  0  0  0  0  0
   -2.8500    3.5970    0.7906 H   0  0  0  1  0  0  0  0  0  0  0  0
  -10.6769   -0.6557    3.9971 N   0  0  0  1  0  0  0  0  0  0  0  0
   -9.4151   -1.9865    0.5868 C   0  0  0  1  0  0  0  0  0  0  0  0
  -10.4340   -2.0738   -0.5327 C   0  0  0  1  0  0  0  0  0  0  0  0
   -8.4412   -2.7374    0.6238 O   0  0  0  1  0  0  0  0  0  0  0  0
  -11.4848   -0.9201    5.1783 C   0  0  0  1  0  0  0  0  0  0  0  0
    1.6537   -0.6347    1.8809 O   0  0  0  1  0  0  0  0  0  0  0  0
   -8.7039   -1.1885    4.9512 O   0  0  0  1  0  0  0  0  0  0  0  0
   -9.6496   -1.0472    1.5168 N   0  0  0  1  0  0  0  0  0  0  0  0
   -1.7968   -3.1399    7.1598 O   0  5  0  1  0  0  0  0  0  0  0  0
   -4.4742    1.0465   -0.2035 N   0  0  0  1  0  0  0  0  0  0  0  0
   -0.7567   -1.9389    5.5319 O   0  0  0  1  0  0  0  0  0  0  0  0
   -7.2264    0.5429    1.1099 C   0  0  0  1  0  0  0  0  0  0  0  0
   -8.0633    0.5994    2.3819 C   0  0  0  1  0  0  0  0  0  0  0  0
   -2.3247    0.7634    0.2862 C   0  0  0  1  0  0  0  0  0  0  0  0
   -6.6572    1.8614    0.6480 C   0  0  0  1  0  0  0  0  0  0  0  0
   -2.9460   -0.4940    0.2827 C   0  0  0  1  0  0  0  0  0  0  0  0
    2.5239    0.0264   -0.2177 C   0  0  0  1  0  0  0  0  0  0  0  0
   -8.7126   -0.7692    2.5935 C   0  0  0  1  0  0  0  0  0  0  0  0
   -5.7228    1.7299   -0.5427 C   0  0  0  1  0  0  0  0  0  0  0  0
   -2.2751   -1.8227    0.5640 C   0  0  0  1  0  0  0  0  0  0  0  0
   -9.3578   -0.8666    3.9728 C   0  0  0  1  0  0  0  0  0  0  0  0
    1.4585    0.3238    0.8427 C   0  0  0  1  0  0  0  0  0  0  0  0
    3.9475    0.0027    0.2810 C   0  0  0  1  0  0  0  0  0  0  0  0
   -0.9158    1.0195    0.5598 C   0  0  0  1  0  0  0  0  0  0  0  0
    5.0019   -0.2962   -0.7679 C   0  0  0  1  0  0  0  0  0  0  0  0
    0.0753    0.2050    0.2860 C   0  0  0  1  0  0  0  0  0  0  0  0
   -3.2972    1.7064   -0.0173 C   0  0  0  1  0  0  0  0  0  0  0  0
    6.4214   -0.2310   -0.2306 C   0  0  0  1  0  0  0  0  0  0  0  0
   -4.2797   -0.3047   -0.0232 C   0  0  0  1  0  0  0  0  0  0  0  0
   -1.3301   -1.8094    1.7234 C   0  0  0  1  0  0  0  0  0  0  0  0
   -1.6643   -1.5275    2.9601 C   0  0  0  1  0  0  0  0  0  0  0  0
   -3.0744   -1.4837    3.4812 C   0  0  0  1  0  0  0  0  0  0  0  0
    7.3681   -0.7152   -1.3168 C   0  0  0  1  0  0  0  0  0  0  0  0
   -3.1513   -0.6649    4.7631 C   0  0  0  1  0  0  0  0  0  0  0  0
   -3.0701   -1.5101    6.0238 C   0  0  0  1  0  0  0  0  0  0  0  0
   -1.7551   -2.1916    6.1860 C   0  0  0  1  0  0  0  0  0  0  0  0
  -11.1156   -0.3110    3.1915 H   0  0  0  1  0  0  0  0  0  0  0  0
  -10.2352   -2.9391   -1.1299 H   0  0  0  1  0  0  0  0  0  0  0  0
  -10.3692   -1.1971   -1.1428 H   0  0  0  1  0  0  0  0  0  0  0  0
  -11.4166   -2.1468   -0.1155 H   0  0  0  1  0  0  0  0  0  0  0  0
  -11.5545   -1.9764    5.3342 H   0  0  0  1  0  0  0  0  0  0  0  0
  -12.4651   -0.5151    5.0376 H   0  0  0  1  0  0  0  0  0  0  0  0
  -11.0287   -0.4633    6.0317 H   0  0  0  1  0  0  0  0  0  0  0  0
    1.0294   -0.4694    2.5911 H   0  0  0  1  0  0  0  0  0  0  0  0
  -10.4812   -0.5309    1.4684 H   0  0  0  1  0  0  0  0  0  0  0  0
   -7.8443    0.1578    0.3258 H   0  0  0  1  0  0  0  0  0  0  0  0
   -6.4096   -0.1265    1.2823 H   0  0  0  1  0  0  0  0  0  0  0  0
   -8.8217    1.3476    2.2824 H   0  0  0  1  0  0  0  0  0  0  0  0
   -7.4365    0.8348    3.2166 H   0  0  0  1  0  0  0  0  0  0  0  0
   -6.1136    2.2990    1.4591 H   0  0  0  1  0  0  0  0  0  0  0  0
   -7.4679    2.5035    0.3737 H   0  0  0  1  0  0  0  0  0  0  0  0
    2.4529    0.7779   -0.9760 H   0  0  0  1  0  0  0  0  0  0  0  0
    2.3076   -0.9314   -0.6427 H   0  0  0  1  0  0  0  0  0  0  0  0
   -7.9324   -1.5004    2.5546 H   0  0  0  1  0  0  0  0  0  0  0  0
   -6.2207    1.1739   -1.3094 H   0  0  0  1  0  0  0  0  0  0  0  0
   -5.4901    2.7092   -0.9056 H   0  0  0  1  0  0  0  0  0  0  0  0
   -1.7281   -2.1118   -0.3090 H   0  0  0  1  0  0  0  0  0  0  0  0
   -3.0378   -2.5461    0.7635 H   0  0  0  1  0  0  0  0  0  0  0  0
    1.6058    1.3156    1.2162 H   0  0  0  1  0  0  0  0  0  0  0  0
    4.0178   -0.7465    1.0417 H   0  0  0  1  0  0  0  0  0  0  0  0
    4.1650    0.9617    0.7029 H   0  0  0  1  0  0  0  0  0  0  0  0
   -0.6760    1.9255    1.0107 H   0  0  0  1  0  0  0  0  0  0  0  0
    4.9055    0.4178   -1.5590 H   0  0  0  1  0  0  0  0  0  0  0  0
    4.8293   -1.2800   -1.1517 H   0  0  0  1  0  0  0  0  0  0  0  0
   -0.1148   -0.5820   -0.3667 H   0  0  0  1  0  0  0  0  0  0  0  0
    6.5104   -0.8579    0.6319 H   0  0  0  1  0  0  0  0  0  0  0  0
    6.6614    0.7775    0.0346 H   0  0  0  1  0  0  0  0  0  0  0  0
   -0.3339   -2.0409    1.5349 H   0  0  0  1  0  0  0  0  0  0  0  0
   -0.8969   -1.3187    3.6302 H   0  0  0  1  0  0  0  0  0  0  0  0
   -3.4054   -2.4813    3.6818 H   0  0  0  1  0  0  0  0  0  0  0  0
   -3.7079   -1.0390    2.7423 H   0  0  0  1  0  0  0  0  0  0  0  0
    7.6315    0.1044   -1.9524 H   0  0  0  1  0  0  0  0  0  0  0  0
    6.8869   -1.4752   -1.8962 H   0  0  0  1  0  0  0  0  0  0  0  0
    8.2523   -1.1155   -0.8665 H   0  0  0  1  0  0  0  0  0  0  0  0
   -4.0795   -0.1327    4.7706 H   0  0  0  1  0  0  0  0  0  0  0  0
   -2.3398    0.0325    4.7693 H   0  0  0  1  0  0  0  0  0  0  0  0
   -3.8372   -2.2550    5.9844 H   0  0  0  1  0  0  0  0  0  0  0  0
   -3.2316   -0.8756    6.8702 H   0  0  0  1  0  0  0  0  0  0  0  0
  1 34  1  0  0  0  0
  2  4  1  0  0  0  0
  3  4  1  0  0  0  0
  4  5  1  0  0  0  0
  4 32  1  0  0  0  0
  6 10  1  0  0  0  0
  6 26  1  0  0  0  0
  6 42  1  0  0  0  0
  7  8  1  0  0  0  0
  7  9  2  0  0  0  0
  7 13  1  0  0  0  0
  8 43  1  0  0  0  0
  8 44  1  0  0  0  0
  8 45  1  0  0  0  0
 10 46  1  0  0  0  0
 10 47  1  0  0  0  0
 10 48  1  0  0  0  0
 11 27  1  0  0  0  0
 11 49  1  0  0  0  0
 12 26  2  0  0  0  0
 13 23  1  0  0  0  0
 13 50  1  0  0  0  0
 14 41  1  0  0  0  0
 15 24  1  0  0  0  0
 15 32  4  0  0  0  0
 15 34  4  0  0  0  0
 16 41  2  0  0  0  0
 17 18  1  0  0  0  0
 17 20  1  0  0  0  0
 17 51  1  0  0  0  0
 17 52  1  0  0  0  0
 18 23  1  0  0  0  0
 18 53  1  0  0  0  0
 18 54  1  0  0  0  0
 19 21  4  0  0  0  0
 19 29  1  0  0  0  0
 19 32  4  0  0  0  0
 20 24  1  0  0  0  0
 20 55  1  0  0  0  0
 20 56  1  0  0  0  0
 21 25  1  0  0  0  0
 21 34  4  0  0  0  0
 22 27  1  0  0  0  0
 22 28  1  0  0  0  0
 22 57  1  0  0  0  0
 22 58  1  0  0  0  0
 23 26  1  0  0  0  0
 23 59  1  0  0  0  0
 24 60  1  0  0  0  0
 24 61  1  0  0  0  0
 25 35  1  0  0  0  0
 25 62  1  0  0  0  0
 25 63  1  0  0  0  0
 27 31  1  0  0  0  0
 27 64  1  0  0  0  0
 28 30  1  0  0  0  0
 28 65  1  0  0  0  0
 28 66  1  0  0  0  0
 29 31  2  0  0  0  0
 29 67  1  0  0  0  0
 30 33  1  0  0  0  0
 30 68  1  0  0  0  0
 30 69  1  0  0  0  0
 31 70  1  0  0  0  0
 33 38  1  0  0  0  0
 33 71  1  0  0  0  0
 33 72  1  0  0  0  0
 35 36  2  0  0  0  0
 35 73  1  0  0  0  0
 36 37  1  0  0  0  0
 36 74  1  0  0  0  0
 37 39  1  0  0  0  0
 37 75  1  0  0  0  0
 37 76  1  0  0  0  0
 38 77  1  0  0  0  0
 38 78  1  0  0  0  0
 38 79  1  0  0  0  0
 39 40  1  0  0  0  0
 39 80  1  0  0  0  0
 39 81  1  0  0  0  0
 40 41  1  0  0  0  0
 40 82  1  0  0  0  0
 40 83  1  0  0  0  0
M  END
> <ConfClashScore>
0 

> <ConfOneFourInteractionScore>
-0.983481 

> <ConfScore>
0.19566 

> <ConfScorePBest>
0.0028497 

> <ConfTolerance>
2.16732 

$$$$
9548876
  PyMOL2.2          3D                             0

 83 83  0  0  0  0  0  0  0  0999 V2000
   -5.0016   -1.0246   -0.1133 H   0  0  0  1  0  0  0  0  0  0  0  0
   -4.0810    3.6474    0.2068 H   0  0  0  1  0  0  0  0  0  0  0  0
   -3.0567    3.4008   -1.1869 H   0  0  0  1  0  0  0  0  0  0  0  0
   -3.1828    3.1855   -0.1464 C   0  0  0  1  0  0  0  0  0  0  0  0
   -2.3465    3.5673    0.4012 H   0  0  0  1  0  0  0  0  0  0  0  0
   -6.9707    3.9260    4.0446 N   0  0  0  1  0  0  0  0  0  0  0  0
  -10.3586    5.7456    2.0216 C   0  0  0  1  0  0  0  0  0  0  0  0
  -10.6589    7.0106    1.2414 C   0  0  0  1  0  0  0  0  0  0  0  0
  -11.1165    5.3439    2.9007 O   0  0  0  1  0  0  0  0  0  0  0  0
   -5.5977    4.0714    4.5046 C   0  0  0  1  0  0  0  0  0  0  0  0
    1.0155    3.8643    1.6810 O   0  0  0  1  0  0  0  0  0  0  0  0
   -6.4174    4.3878    1.9139 O   0  0  0  1  0  0  0  0  0  0  0  0
   -9.2303    5.1123    1.6886 N   0  0  0  1  0  0  0  0  0  0  0  0
    4.9472   -1.7315    0.4873 O   0  5  0  1  0  0  0  0  0  0  0  0
   -4.4556    1.0666   -0.1511 N   0  0  0  1  0  0  0  0  0  0  0  0
    4.1092   -0.5886    2.2460 O   0  0  0  1  0  0  0  0  0  0  0  0
   -7.8744    2.6402    0.2732 C   0  0  0  1  0  0  0  0  0  0  0  0
   -8.8482    2.6946    1.4345 C   0  0  0  1  0  0  0  0  0  0  0  0
   -2.3053    0.7512    0.3150 C   0  0  0  1  0  0  0  0  0  0  0  0
   -6.6450    1.8226    0.6384 C   0  0  0  1  0  0  0  0  0  0  0  0
   -2.9367   -0.5005    0.2758 C   0  0  0  1  0  0  0  0  0  0  0  0
    1.4669    1.4670    1.8918 C   0  0  0  1  0  0  0  0  0  0  0  0
   -8.7196    3.9188    2.3462 C   0  0  0  1  0  0  0  0  0  0  0  0
   -5.7243    1.6699   -0.5604 C   0  0  0  1  0  0  0  0  0  0  0  0
   -2.3299   -1.8702    0.5010 C   0  0  0  1  0  0  0  0  0  0  0  0
   -7.2723    4.1274    2.7588 C   0  0  0  1  0  0  0  0  0  0  0  0
    1.0027    2.6290    1.0047 C   0  0  0  1  0  0  0  0  0  0  0  0
    0.6357    1.0538    3.0911 C   0  0  0  1  0  0  0  0  0  0  0  0
   -0.9106    1.0940    0.5759 C   0  0  0  1  0  0  0  0  0  0  0  0
    0.4537    2.1661    4.1098 C   0  0  0  1  0  0  0  0  0  0  0  0
   -0.3288    2.2606    0.4315 C   0  0  0  1  0  0  0  0  0  0  0  0
   -3.2721    1.7110    0.0481 C   0  0  0  1  0  0  0  0  0  0  0  0
   -0.3602    1.7505    5.3101 C   0  0  0  1  0  0  0  0  0  0  0  0
   -4.2708   -0.2912   -0.0151 C   0  0  0  1  0  0  0  0  0  0  0  0
   -1.6407   -2.3479   -0.7376 C   0  0  0  1  0  0  0  0  0  0  0  0
   -0.3717   -2.6724   -0.8639 C   0  0  0  1  0  0  0  0  0  0  0  0
    0.6109   -2.9396    0.2448 C   0  0  0  1  0  0  0  0  0  0  0  0
   -0.8945    0.3311    5.2770 C   0  0  0  1  0  0  0  0  0  0  0  0
    1.7920   -1.9828    0.2370 C   0  0  0  1  0  0  0  0  0  0  0  0
    2.8326   -2.4032    1.2620 C   0  0  0  1  0  0  0  0  0  0  0  0
    3.9880   -1.4752    1.4167 C   0  0  0  1  0  0  0  0  0  0  0  0
   -7.6755    3.6799    4.6795 H   0  0  0  1  0  0  0  0  0  0  0  0
  -10.7897    6.7698    0.2071 H   0  0  0  1  0  0  0  0  0  0  0  0
   -9.8446    7.6965    1.3474 H   0  0  0  1  0  0  0  0  0  0  0  0
  -11.5544    7.4582    1.6191 H   0  0  0  1  0  0  0  0  0  0  0  0
   -5.0209    4.5714    3.7548 H   0  0  0  1  0  0  0  0  0  0  0  0
   -5.1795    3.1041    4.6898 H   0  0  0  1  0  0  0  0  0  0  0  0
   -5.5831    4.6456    5.4073 H   0  0  0  1  0  0  0  0  0  0  0  0
    1.8363    4.3249    1.4916 H   0  0  0  1  0  0  0  0  0  0  0  0
   -8.7072    5.4792    0.9455 H   0  0  0  1  0  0  0  0  0  0  0  0
   -7.5720    3.6354    0.0221 H   0  0  0  1  0  0  0  0  0  0  0  0
   -8.3574    2.1905   -0.5690 H   0  0  0  1  0  0  0  0  0  0  0  0
   -8.6966    1.8206    2.0329 H   0  0  0  1  0  0  0  0  0  0  0  0
   -9.8402    2.6851    1.0335 H   0  0  0  1  0  0  0  0  0  0  0  0
   -6.9540    0.8530    0.9691 H   0  0  0  1  0  0  0  0  0  0  0  0
   -6.1161    2.3170    1.4263 H   0  0  0  1  0  0  0  0  0  0  0  0
    2.4360    1.7286    2.2623 H   0  0  0  1  0  0  0  0  0  0  0  0
    1.5463    0.6076    1.2595 H   0  0  0  1  0  0  0  0  0  0  0  0
   -9.2948    3.7351    3.2296 H   0  0  0  1  0  0  0  0  0  0  0  0
   -6.1944    1.0433   -1.2892 H   0  0  0  1  0  0  0  0  0  0  0  0
   -5.5360    2.6335   -0.9859 H   0  0  0  1  0  0  0  0  0  0  0  0
   -3.1053   -2.5603    0.7608 H   0  0  0  1  0  0  0  0  0  0  0  0
   -1.6198   -1.8136    1.2994 H   0  0  0  1  0  0  0  0  0  0  0  0
    1.6885    2.6861    0.1854 H   0  0  0  1  0  0  0  0  0  0  0  0
    1.1199    0.2295    3.5717 H   0  0  0  1  0  0  0  0  0  0  0  0
   -0.3300    0.7488    2.7457 H   0  0  0  1  0  0  0  0  0  0  0  0
   -0.3055    0.3201    0.9173 H   0  0  0  1  0  0  0  0  0  0  0  0
   -0.0406    2.9861    3.6321 H   0  0  0  1  0  0  0  0  0  0  0  0
    1.4199    2.4789    4.4468 H   0  0  0  1  0  0  0  0  0  0  0  0
   -0.8307    2.9834   -0.1228 H   0  0  0  1  0  0  0  0  0  0  0  0
   -1.1950    2.4152    5.3884 H   0  0  0  1  0  0  0  0  0  0  0  0
    0.2580    1.8498    6.1778 H   0  0  0  1  0  0  0  0  0  0  0  0
   -2.2281   -2.4329   -1.5916 H   0  0  0  1  0  0  0  0  0  0  0  0
   -0.0082   -2.7530   -1.8349 H   0  0  0  1  0  0  0  0  0  0  0  0
    0.9807   -3.9380    0.1388 H   0  0  0  1  0  0  0  0  0  0  0  0
    0.1019   -2.8447    1.1812 H   0  0  0  1  0  0  0  0  0  0  0  0
   -1.8322    0.2904    5.7909 H   0  0  0  1  0  0  0  0  0  0  0  0
   -0.1968   -0.3236    5.7561 H   0  0  0  1  0  0  0  0  0  0  0  0
   -1.0314    0.0254    4.2608 H   0  0  0  1  0  0  0  0  0  0  0  0
    1.4469   -0.9975    0.4712 H   0  0  0  1  0  0  0  0  0  0  0  0
    2.2375   -1.9834   -0.7359 H   0  0  0  1  0  0  0  0  0  0  0  0
    3.2142   -3.3598    0.9717 H   0  0  0  1  0  0  0  0  0  0  0  0
    2.3462   -2.4859    2.2114 H   0  0  0  1  0  0  0  0  0  0  0  0
  1 34  1  0  0  0  0
  2  4  1  0  0  0  0
  3  4  1  0  0  0  0
  4  5  1  0  0  0  0
  4 32  1  0  0  0  0
  6 10  1  0  0  0  0
  6 26  1  0  0  0  0
  6 42  1  0  0  0  0
  7  8  1  0  0  0  0
  7  9  2  0  0  0  0
  7 13  1  0  0  0  0
  8 43  1  0  0  0  0
  8 44  1  0  0  0  0
  8 45  1  0  0  0  0
 10 46  1  0  0  0  0
 10 47  1  0  0  0  0
 10 48  1  0  0  0  0
 11 27  1  0  0  0  0
 11 49  1  0  0  0  0
 12 26  2  0  0  0  0
 13 23  1  0  0  0  0
 13 50  1  0  0  0  0
 14 41  1  0  0  0  0
 15 24  1  0  0  0  0
 15 32  4  0  0  0  0
 15 34  4  0  0  0  0
 16 41  2  0  0  0  0
 17 18  1  0  0  0  0
 17 20  1  0  0  0  0
 17 51  1  0  0  0  0
 17 52  1  0  0  0  0
 18 23  1  0  0  0  0
 18 53  1  0  0  0  0
 18 54  1  0  0  0  0
 19 21  4  0  0  0  0
 19 29  1  0  0  0  0
 19 32  4  0  0  0  0
 20 24  1  0  0  0  0
 20 55  1  0  0  0  0
 20 56  1  0  0  0  0
 21 25  1  0  0  0  0
 21 34  4  0  0  0  0
 22 27  1  0  0  0  0
 22 28  1  0  0  0  0
 22 57  1  0  0  0  0
 22 58  1  0  0  0  0
 23 26  1  0  0  0  0
 23 59  1  0  0  0  0
 24 60  1  0  0  0  0
 24 61  1  0  0  0  0
 25 35  1  0  0  0  0
 25 62  1  0  0  0  0
 25 63  1  0  0  0  0
 27 31  1  0  0  0  0
 27 64  1  0  0  0  0
 28 30  1  0  0  0  0
 28 65  1  0  0  0  0
 28 66  1  0  0  0  0
 29 31  2  0  0  0  0
 29 67  1  0  0  0  0
 30 33  1  0  0  0  0
 30 68  1  0  0  0  0
 30 69  1  0  0  0  0
 31 70  1  0  0  0  0
 33 38  1  0  0  0  0
 33 71  1  0  0  0  0
 33 72  1  0  0  0  0
 35 36  2  0  0  0  0
 35 73  1  0  0  0  0
 36 37  1  0  0  0  0
 36 74  1  0  0  0  0
 37 39  1  0  0  0  0
 37 75  1  0  0  0  0
 37 76  1  0  0  0  0
 38 77  1  0  0  0  0
 38 78  1  0  0  0  0
 38 79  1  0  0  0  0
 39 40  1  0  0  0  0
 39 80  1  0  0  0  0
 39 81  1  0  0  0  0
 40 41  1  0  0  0  0
 40 82  1  0  0  0  0
 40 83  1  0  0  0  0
M  END
> <ConfClashScore>
0 

> <ConfOneFourInteractionScore>
-0.982679 

> <ConfScore>
0.206193 

> <ConfScorePBest>
0.00282122 

> <ConfTolerance>
2.46296 

$$$$
9548876
  PyMOL2.2          3D                             0

 83 83  0  0  0  0  0  0  0  0999 V2000
   -5.0015   -1.0207   -0.1164 H   0  0  0  1  0  0  0  0  0  0  0  0
   -3.9315    3.5366   -0.8317 H   0  0  0  1  0  0  0  0  0  0  0  0
   -2.2193    3.4729   -0.4898 H   0  0  0  1  0  0  0  0  0  0  0  0
   -3.1914    3.1994   -0.1363 C   0  0  0  1  0  0  0  0  0  0  0  0
   -3.3654    3.6529    0.8171 H   0  0  0  1  0  0  0  0  0  0  0  0
   -7.0959    2.9915   -7.3783 N   0  0  0  1  0  0  0  0  0  0  0  0
   -5.4489    5.1368   -6.0068 C   0  0  0  1  0  0  0  0  0  0  0  0
   -5.8803    6.4923   -5.4816 C   0  0  0  1  0  0  0  0  0  0  0  0
   -4.8148    5.0308   -7.0558 O   0  0  0  1  0  0  0  0  0  0  0  0
   -7.8705    2.5750   -8.5378 C   0  0  0  1  0  0  0  0  0  0  0  0
    1.7139    1.1731    1.6682 O   0  0  0  1  0  0  0  0  0  0  0  0
   -5.5403    1.3895   -7.5657 O   0  0  0  1  0  0  0  0  0  0  0  0
   -5.8032    4.0811   -5.2570 N   0  0  0  1  0  0  0  0  0  0  0  0
    1.3692   -2.1723   -5.3594 O   0  5  0  1  0  0  0  0  0  0  0  0
   -4.4521    1.0680   -0.2078 N   0  0  0  1  0  0  0  0  0  0  0  0
   -0.7271   -2.6596   -6.1408 O   0  0  0  1  0  0  0  0  0  0  0  0
   -5.4453    2.0399   -3.0604 C   0  0  0  1  0  0  0  0  0  0  0  0
   -6.0005    1.8051   -4.4236 C   0  0  0  1  0  0  0  0  0  0  0  0
   -2.3128    0.7660    0.3144 C   0  0  0  1  0  0  0  0  0  0  0  0
   -6.1852    1.2827   -1.9697 C   0  0  0  1  0  0  0  0  0  0  0  0
   -2.9449   -0.4859    0.3007 C   0  0  0  1  0  0  0  0  0  0  0  0
    2.1365    2.6652   -0.1944 C   0  0  0  1  0  0  0  0  0  0  0  0
   -5.4837    2.6921   -5.5668 C   0  0  0  1  0  0  0  0  0  0  0  0
   -5.7410    1.6603   -0.5669 C   0  0  0  1  0  0  0  0  0  0  0  0
   -2.3466   -1.8442    0.5809 C   0  0  0  1  0  0  0  0  0  0  0  0
   -6.0640    2.2797   -6.9162 C   0  0  0  1  0  0  0  0  0  0  0  0
    1.2337    2.3272    1.0041 C   0  0  0  1  0  0  0  0  0  0  0  0
    2.2155    1.6069   -1.2667 C   0  0  0  1  0  0  0  0  0  0  0  0
   -0.8230    0.9695    0.5149 C   0  0  0  1  0  0  0  0  0  0  0  0
    3.1525    1.9138   -2.4190 C   0  0  0  1  0  0  0  0  0  0  0  0
   -0.1589    2.0981    0.5088 C   0  0  0  1  0  0  0  0  0  0  0  0
   -3.2724    1.7176   -0.0033 C   0  0  0  1  0  0  0  0  0  0  0  0
    2.6697    1.3741   -3.7424 C   0  0  0  1  0  0  0  0  0  0  0  0
   -4.2720   -0.2850   -0.0253 C   0  0  0  1  0  0  0  0  0  0  0  0
   -2.8025   -2.8767   -0.4005 C   0  0  0  1  0  0  0  0  0  0  0  0
   -2.9661   -2.6667   -1.7090 C   0  0  0  1  0  0  0  0  0  0  0  0
   -2.3656   -1.4293   -2.3189 C   0  0  0  1  0  0  0  0  0  0  0  0
    3.5631    1.6717   -4.9356 C   0  0  0  1  0  0  0  0  0  0  0  0
   -1.8652   -1.5237   -3.7411 C   0  0  0  1  0  0  0  0  0  0  0  0
   -0.4579   -2.0880   -3.8484 C   0  0  0  1  0  0  0  0  0  0  0  0
    0.0252   -2.3396   -5.2353 C   0  0  0  1  0  0  0  0  0  0  0  0
   -7.3396    3.8230   -6.9206 H   0  0  0  1  0  0  0  0  0  0  0  0
   -6.0045    6.4410   -4.4201 H   0  0  0  1  0  0  0  0  0  0  0  0
   -6.8079    6.7717   -5.9359 H   0  0  0  1  0  0  0  0  0  0  0  0
   -5.1330    7.2205   -5.7183 H   0  0  0  1  0  0  0  0  0  0  0  0
   -8.4225    3.4095   -8.9171 H   0  0  0  1  0  0  0  0  0  0  0  0
   -8.5493    1.7985   -8.2528 H   0  0  0  1  0  0  0  0  0  0  0  0
   -7.2093    2.2108   -9.2961 H   0  0  0  1  0  0  0  0  0  0  0  0
    1.3795    0.3880    1.2285 H   0  0  0  1  0  0  0  0  0  0  0  0
   -6.3150    4.2570   -4.4400 H   0  0  0  1  0  0  0  0  0  0  0  0
   -5.5036    3.0866   -2.8460 H   0  0  0  1  0  0  0  0  0  0  0  0
   -4.4211    1.7304   -3.0532 H   0  0  0  1  0  0  0  0  0  0  0  0
   -7.0599    1.9435   -4.3656 H   0  0  0  1  0  0  0  0  0  0  0  0
   -5.7868    0.7898   -4.6852 H   0  0  0  1  0  0  0  0  0  0  0  0
   -6.0155    0.2354   -2.1090 H   0  0  0  1  0  0  0  0  0  0  0  0
   -7.2308    1.4905   -2.0620 H   0  0  0  1  0  0  0  0  0  0  0  0
    3.1262    2.8339    0.1757 H   0  0  0  1  0  0  0  0  0  0  0  0
    1.7654    3.5625   -0.6438 H   0  0  0  1  0  0  0  0  0  0  0  0
   -4.4204    2.5823   -5.6148 H   0  0  0  1  0  0  0  0  0  0  0  0
   -5.6569    2.7254   -0.5089 H   0  0  0  1  0  0  0  0  0  0  0  0
   -6.4797    1.3219    0.1294 H   0  0  0  1  0  0  0  0  0  0  0  0
   -2.6363   -2.1519    1.5639 H   0  0  0  1  0  0  0  0  0  0  0  0
   -1.2805   -1.7680    0.5302 H   0  0  0  1  0  0  0  0  0  0  0  0
    1.2282    3.1629    1.6723 H   0  0  0  1  0  0  0  0  0  0  0  0
    1.2331    1.4705   -1.6681 H   0  0  0  1  0  0  0  0  0  0  0  0
    2.5436    0.6973   -0.8084 H   0  0  0  1  0  0  0  0  0  0  0  0
   -0.2614    0.1092    0.6766 H   0  0  0  1  0  0  0  0  0  0  0  0
    4.1074    1.4813   -2.2043 H   0  0  0  1  0  0  0  0  0  0  0  0
    3.2520    2.9760   -2.5017 H   0  0  0  1  0  0  0  0  0  0  0  0
   -0.6535    2.9249    0.1170 H   0  0  0  1  0  0  0  0  0  0  0  0
    1.7063    1.7962   -3.9387 H   0  0  0  1  0  0  0  0  0  0  0  0
    2.5826    0.3114   -3.6529 H   0  0  0  1  0  0  0  0  0  0  0  0
   -3.0074   -3.8292   -0.0367 H   0  0  0  1  0  0  0  0  0  0  0  0
   -3.4969   -3.3435   -2.2936 H   0  0  0  1  0  0  0  0  0  0  0  0
   -1.5372   -1.1402   -1.7065 H   0  0  0  1  0  0  0  0  0  0  0  0
   -3.1133   -0.6643   -2.2927 H   0  0  0  1  0  0  0  0  0  0  0  0
    3.6453    2.7307   -5.0650 H   0  0  0  1  0  0  0  0  0  0  0  0
    3.1383    1.2370   -5.8162 H   0  0  0  1  0  0  0  0  0  0  0  0
    4.5347    1.2570   -4.7656 H   0  0  0  1  0  0  0  0  0  0  0  0
   -1.8710   -0.5428   -4.1686 H   0  0  0  1  0  0  0  0  0  0  0  0
   -2.5278   -2.1576   -4.2925 H   0  0  0  1  0  0  0  0  0  0  0  0
   -0.4330   -3.0162   -3.3167 H   0  0  0  1  0  0  0  0  0  0  0  0
    0.2123   -1.3935   -3.3863 H   0  0  0  1  0  0  0  0  0  0  0  0
  1 34  1  0  0  0  0
  2  4  1  0  0  0  0
  3  4  1  0  0  0  0
  4  5  1  0  0  0  0
  4 32  1  0  0  0  0
  6 10  1  0  0  0  0
  6 26  1  0  0  0  0
  6 42  1  0  0  0  0
  7  8  1  0  0  0  0
  7  9  2  0  0  0  0
  7 13  1  0  0  0  0
  8 43  1  0  0  0  0
  8 44  1  0  0  0  0
  8 45  1  0  0  0  0
 10 46  1  0  0  0  0
 10 47  1  0  0  0  0
 10 48  1  0  0  0  0
 11 27  1  0  0  0  0
 11 49  1  0  0  0  0
 12 26  2  0  0  0  0
 13 23  1  0  0  0  0
 13 50  1  0  0  0  0
 14 41  1  0  0  0  0
 15 24  1  0  0  0  0
 15 32  4  0  0  0  0
 15 34  4  0  0  0  0
 16 41  2  0  0  0  0
 17 18  1  0  0  0  0
 17 20  1  0  0  0  0
 17 51  1  0  0  0  0
 17 52  1  0  0  0  0
 18 23  1  0  0  0  0
 18 53  1  0  0  0  0
 18 54  1  0  0  0  0
 19 21  4  0  0  0  0
 19 29  1  0  0  0  0
 19 32  4  0  0  0  0
 20 24  1  0  0  0  0
 20 55  1  0  0  0  0
 20 56  1  0  0  0  0
 21 25  1  0  0  0  0
 21 34  4  0  0  0  0
 22 27  1  0  0  0  0
 22 28  1  0  0  0  0
 22 57  1  0  0  0  0
 22 58  1  0  0  0  0
 23 26  1  0  0  0  0
 23 59  1  0  0  0  0
 24 60  1  0  0  0  0
 24 61  1  0  0  0  0
 25 35  1  0  0  0  0
 25 62  1  0  0  0  0
 25 63  1  0  0  0  0
 27 31  1  0  0  0  0
 27 64  1  0  0  0  0
 28 30  1  0  0  0  0
 28 65  1  0  0  0  0
 28 66  1  0  0  0  0
 29 31  2  0  0  0  0
 29 67  1  0  0  0  0
 30 33  1  0  0  0  0
 30 68  1  0  0  0  0
 30 69  1  0  0  0  0
 31 70  1  0  0  0  0
 33 38  1  0  0  0  0
 33 71  1  0  0  0  0
 33 72  1  0  0  0  0
 35 36  2  0  0  0  0
 35 73  1  0  0  0  0
 36 37  1  0  0  0  0
 36 74  1  0  0  0  0
 37 39  1  0  0  0  0
 37 75  1  0  0  0  0
 37 76  1  0  0  0  0
 38 77  1  0  0  0  0
 38 78  1  0  0  0  0
 38 79  1  0  0  0  0
 39 40  1  0  0  0  0
 39 80  1  0  0  0  0
 39 81  1  0  0  0  0
 40 41  1  0  0  0  0
 40 82  1  0  0  0  0
 40 83  1  0  0  0  0
M  END
> <ConfClashScore>
0 

> <ConfOneFourInteractionScore>
-0.988037 

> <ConfScore>
0.213755 

> <ConfScorePBest>
0.00279274 

> <ConfTolerance>
2.39156 

$$$$
9548876
  PyMOL2.2          3D                             0

 83 83  0  0  0  0  0  0  0  0999 V2000
   -5.0057   -1.0398   -0.1132 H   0  0  0  1  0  0  0  0  0  0  0  0
   -2.1453    3.4566   -0.2586 H   0  0  0  1  0  0  0  0  0  0  0  0
   -3.5552    3.6507    0.7548 H   0  0  0  1  0  0  0  0  0  0  0  0
   -3.1741    3.1906   -0.1328 C   0  0  0  1  0  0  0  0  0  0  0  0
   -3.7353    3.5277   -0.9791 H   0  0  0  1  0  0  0  0  0  0  0  0
  -10.5903    2.5829   -2.3178 N   0  0  0  1  0  0  0  0  0  0  0  0
  -10.4559    3.1081   -6.0941 C   0  0  0  1  0  0  0  0  0  0  0  0
  -10.4898    3.4567   -7.5603 C   0  0  0  1  0  0  0  0  0  0  0  0
  -11.4480    3.0322   -5.3881 O   0  0  0  1  0  0  0  0  0  0  0  0
  -11.3608    3.1350   -1.2136 C   0  0  0  1  0  0  0  0  0  0  0  0
    1.9845    0.4127    2.2592 O   0  0  0  1  0  0  0  0  0  0  0  0
   -9.9750    4.5246   -3.2861 O   0  0  0  1  0  0  0  0  0  0  0  0
   -9.2462    2.8758   -5.5767 N   0  0  0  1  0  0  0  0  0  0  0  0
   -0.1005   -3.9358    4.8765 O   0  5  0  1  0  0  0  0  0  0  0  0
   -4.4722    1.0530   -0.2051 N   0  0  0  1  0  0  0  0  0  0  0  0
   -0.7959   -6.0701    4.6264 O   0  0  0  1  0  0  0  0  0  0  0  0
   -7.3674    2.2953   -2.3363 C   0  0  0  1  0  0  0  0  0  0  0  0
   -7.5790    2.6333   -3.8040 C   0  0  0  1  0  0  0  0  0  0  0  0
   -2.3235    0.7642    0.2850 C   0  0  0  1  0  0  0  0  0  0  0  0
   -5.9705    1.7789   -2.0322 C   0  0  0  1  0  0  0  0  0  0  0  0
   -2.9470   -0.4921    0.2760 C   0  0  0  1  0  0  0  0  0  0  0  0
    2.1743   -0.8216    0.2226 C   0  0  0  1  0  0  0  0  0  0  0  0
   -9.0552    2.5037   -4.1828 C   0  0  0  1  0  0  0  0  0  0  0  0
   -5.7464    1.6880   -0.5431 C   0  0  0  1  0  0  0  0  0  0  0  0
   -2.2805   -1.8192    0.5516 C   0  0  0  1  0  0  0  0  0  0  0  0
   -9.9409    3.3062   -3.2344 C   0  0  0  1  0  0  0  0  0  0  0  0
    1.4406    0.3041    0.9450 C   0  0  0  1  0  0  0  0  0  0  0  0
    1.5057   -1.4299   -0.9952 C   0  0  0  1  0  0  0  0  0  0  0  0
   -0.9144    1.0167    0.5607 C   0  0  0  1  0  0  0  0  0  0  0  0
    2.3095   -2.5562   -1.6242 C   0  0  0  1  0  0  0  0  0  0  0  0
   -0.0441    0.1235    0.9672 C   0  0  0  1  0  0  0  0  0  0  0  0
   -3.2942    1.7101   -0.0153 C   0  0  0  1  0  0  0  0  0  0  0  0
    1.5674   -3.2773   -2.7366 C   0  0  0  1  0  0  0  0  0  0  0  0
   -4.2801   -0.2993   -0.0301 C   0  0  0  1  0  0  0  0  0  0  0  0
   -2.3069   -2.1748    2.0042 C   0  0  0  1  0  0  0  0  0  0  0  0
   -1.3478   -2.8003    2.6395 C   0  0  0  1  0  0  0  0  0  0  0  0
    0.0525   -2.9842    2.1186 C   0  0  0  1  0  0  0  0  0  0  0  0
    0.3031   -3.9285   -2.2058 C   0  0  0  1  0  0  0  0  0  0  0  0
    0.4198   -4.4324    1.9096 C   0  0  0  1  0  0  0  0  0  0  0  0
    0.9072   -5.1706    3.1495 C   0  0  0  1  0  0  0  0  0  0  0  0
   -0.0793   -5.1509    4.2660 C   0  0  0  1  0  0  0  0  0  0  0  0
  -10.5444    1.6070   -2.3949 H   0  0  0  1  0  0  0  0  0  0  0  0
  -10.6405    2.5672   -8.1356 H   0  0  0  1  0  0  0  0  0  0  0  0
   -9.5616    3.9093   -7.8406 H   0  0  0  1  0  0  0  0  0  0  0  0
  -11.2912    4.1411   -7.7456 H   0  0  0  1  0  0  0  0  0  0  0  0
  -11.0735    4.1529   -1.0513 H   0  0  0  1  0  0  0  0  0  0  0  0
  -11.1719    2.5658   -0.3275 H   0  0  0  1  0  0  0  0  0  0  0  0
  -12.4035    3.0923   -1.4500 H   0  0  0  1  0  0  0  0  0  0  0  0
    2.4307    1.2575    2.3525 H   0  0  0  1  0  0  0  0  0  0  0  0
   -8.4601    2.9589   -6.1560 H   0  0  0  1  0  0  0  0  0  0  0  0
   -8.0755    1.5438   -2.0557 H   0  0  0  1  0  0  0  0  0  0  0  0
   -7.5360    3.1790   -1.7569 H   0  0  0  1  0  0  0  0  0  0  0  0
   -7.0023    1.9620   -4.4054 H   0  0  0  1  0  0  0  0  0  0  0  0
   -7.2580    3.6383   -3.9825 H   0  0  0  1  0  0  0  0  0  0  0  0
   -5.2497    2.4469   -2.4554 H   0  0  0  1  0  0  0  0  0  0  0  0
   -5.8539    0.8071   -2.4645 H   0  0  0  1  0  0  0  0  0  0  0  0
    2.3269   -1.6095    0.9304 H   0  0  0  1  0  0  0  0  0  0  0  0
    3.1213   -0.4357   -0.0920 H   0  0  0  1  0  0  0  0  0  0  0  0
   -9.3222    1.4734   -4.0727 H   0  0  0  1  0  0  0  0  0  0  0  0
   -5.7559    2.6767   -0.1340 H   0  0  0  1  0  0  0  0  0  0  0  0
   -6.5402    1.1151   -0.1113 H   0  0  0  1  0  0  0  0  0  0  0  0
   -1.2618   -1.7666    0.2285 H   0  0  0  1  0  0  0  0  0  0  0  0
   -2.7908   -2.5817    0.0011 H   0  0  0  1  0  0  0  0  0  0  0  0
    1.6464    1.2105    0.4149 H   0  0  0  1  0  0  0  0  0  0  0  0
    1.3691   -0.6611   -1.7267 H   0  0  0  1  0  0  0  0  0  0  0  0
    0.5524   -1.8167   -0.7011 H   0  0  0  1  0  0  0  0  0  0  0  0
   -0.5697    1.9883    0.4233 H   0  0  0  1  0  0  0  0  0  0  0  0
    2.5518   -3.2669   -0.8619 H   0  0  0  1  0  0  0  0  0  0  0  0
    3.2107   -2.1450   -2.0287 H   0  0  0  1  0  0  0  0  0  0  0  0
   -0.4139   -0.7774    1.3322 H   0  0  0  1  0  0  0  0  0  0  0  0
    2.2032   -4.0316   -3.1510 H   0  0  0  1  0  0  0  0  0  0  0  0
    1.3060   -2.5726   -3.4981 H   0  0  0  1  0  0  0  0  0  0  0  0
   -3.1499   -1.9052    2.5503 H   0  0  0  1  0  0  0  0  0  0  0  0
   -1.5701   -3.1998    3.5736 H   0  0  0  1  0  0  0  0  0  0  0  0
    0.7364   -2.5575    2.8222 H   0  0  0  1  0  0  0  0  0  0  0  0
    0.1375   -2.4728    1.1825 H   0  0  0  1  0  0  0  0  0  0  0  0
    0.5161   -4.4197   -1.2794 H   0  0  0  1  0  0  0  0  0  0  0  0
   -0.0535   -4.6455   -2.9156 H   0  0  0  1  0  0  0  0  0  0  0  0
   -0.4446   -3.1795   -2.0484 H   0  0  0  1  0  0  0  0  0  0  0  0
    1.1971   -4.4726    1.1754 H   0  0  0  1  0  0  0  0  0  0  0  0
   -0.4459   -4.9422    1.5416 H   0  0  0  1  0  0  0  0  0  0  0  0
    1.8122   -4.7098    3.4865 H   0  0  0  1  0  0  0  0  0  0  0  0
    1.1019   -6.1890    2.8850 H   0  0  0  1  0  0  0  0  0  0  0  0
  1 34  1  0  0  0  0
  2  4  1  0  0  0  0
  3  4  1  0  0  0  0
  4  5  1  0  0  0  0
  4 32  1  0  0  0  0
  6 10  1  0  0  0  0
  6 26  1  0  0  0  0
  6 42  1  0  0  0  0
  7  8  1  0  0  0  0
  7  9  2  0  0  0  0
  7 13  1  0  0  0  0
  8 43  1  0  0  0  0
  8 44  1  0  0  0  0
  8 45  1  0  0  0  0
 10 46  1  0  0  0  0
 10 47  1  0  0  0  0
 10 48  1  0  0  0  0
 11 27  1  0  0  0  0
 11 49  1  0  0  0  0
 12 26  2  0  0  0  0
 13 23  1  0  0  0  0
 13 50  1  0  0  0  0
 14 41  1  0  0  0  0
 15 24  1  0  0  0  0
 15 32  4  0  0  0  0
 15 34  4  0  0  0  0
 16 41  2  0  0  0  0
 17 18  1  0  0  0  0
 17 20  1  0  0  0  0
 17 51  1  0  0  0  0
 17 52  1  0  0  0  0
 18 23  1  0  0  0  0
 18 53  1  0  0  0  0
 18 54  1  0  0  0  0
 19 21  4  0  0  0  0
 19 29  1  0  0  0  0
 19 32  4  0  0  0  0
 20 24  1  0  0  0  0
 20 55  1  0  0  0  0
 20 56  1  0  0  0  0
 21 25  1  0  0  0  0
 21 34  4  0  0  0  0
 22 27  1  0  0  0  0
 22 28  1  0  0  0  0
 22 57  1  0  0  0  0
 22 58  1  0  0  0  0
 23 26  1  0  0  0  0
 23 59  1  0  0  0  0
 24 60  1  0  0  0  0
 24 61  1  0  0  0  0
 25 35  1  0  0  0  0
 25 62  1  0  0  0  0
 25 63  1  0  0  0  0
 27 31  1  0  0  0  0
 27 64  1  0  0  0  0
 28 30  1  0  0  0  0
 28 65  1  0  0  0  0
 28 66  1  0  0  0  0
 29 31  2  0  0  0  0
 29 67  1  0  0  0  0
 30 33  1  0  0  0  0
 30 68  1  0  0  0  0
 30 69  1  0  0  0  0
 31 70  1  0  0  0  0
 33 38  1  0  0  0  0
 33 71  1  0  0  0  0
 33 72  1  0  0  0  0
 35 36  2  0  0  0  0
 35 73  1  0  0  0  0
 36 37  1  0  0  0  0
 36 74  1  0  0  0  0
 37 39  1  0  0  0  0
 37 75  1  0  0  0  0
 37 76  1  0  0  0  0
 38 77  1  0  0  0  0
 38 78  1  0  0  0  0
 38 79  1  0  0  0  0
 39 40  1  0  0  0  0
 39 80  1  0  0  0  0
 39 81  1  0  0  0  0
 40 41  1  0  0  0  0
 40 82  1  0  0  0  0
 40 83  1  0  0  0  0
M  END
> <ConfClashScore>
0 

> <ConfOneFourInteractionScore>
-0.993773 

> <ConfScore>
0.224906 

> <ConfScorePBest>
0.00276426 

> <ConfTolerance>
2.07825 

$$$$
9548876
  PyMOL2.2          3D                             0

 83 83  0  0  0  0  0  0  0  0999 V2000
   -4.9958   -1.0642   -0.1286 H   0  0  0  1  0  0  0  0  0  0  0  0
   -3.8155    3.6708    0.5505 H   0  0  0  1  0  0  0  0  0  0  0  0
   -3.3982    3.4967   -1.1372 H   0  0  0  1  0  0  0  0  0  0  0  0
   -3.1592    3.1858   -0.1416 C   0  0  0  1  0  0  0  0  0  0  0  0
   -2.1468    3.4504    0.0819 H   0  0  0  1  0  0  0  0  0  0  0  0
   -4.6256   -1.7565    4.6954 N   0  0  0  1  0  0  0  0  0  0  0  0
   -7.4063   -2.0086    5.3352 C   0  0  0  1  0  0  0  0  0  0  0  0
   -7.9602   -1.5727    6.6728 C   0  0  0  1  0  0  0  0  0  0  0  0
   -7.2266   -3.1977    5.0754 O   0  0  0  1  0  0  0  0  0  0  0  0
   -3.4972   -2.5126    5.2179 C   0  0  0  1  0  0  0  0  0  0  0  0
    2.0368    3.0715    0.2496 O   0  0  0  1  0  0  0  0  0  0  0  0
   -4.7140   -2.8305    2.7141 O   0  0  0  1  0  0  0  0  0  0  0  0
   -7.1305   -1.0213    4.4685 N   0  0  0  1  0  0  0  0  0  0  0  0
   -4.5508   -1.9761   -5.3854 O   0  5  0  1  0  0  0  0  0  0  0  0
   -4.4894    1.0349   -0.2283 N   0  0  0  1  0  0  0  0  0  0  0  0
   -2.2955   -2.2457   -5.7665 O   0  0  0  1  0  0  0  0  0  0  0  0
   -7.0494    0.4901    1.3752 C   0  0  0  1  0  0  0  0  0  0  0  0
   -6.1612    0.0442    2.4571 C   0  0  0  1  0  0  0  0  0  0  0  0
   -2.3425    0.7781    0.2867 C   0  0  0  1  0  0  0  0  0  0  0  0
   -6.6314    1.8032    0.7612 C   0  0  0  1  0  0  0  0  0  0  0  0
   -2.9489   -0.4865    0.2791 C   0  0  0  1  0  0  0  0  0  0  0  0
    0.9511    3.0698    2.3747 C   0  0  0  1  0  0  0  0  0  0  0  0
   -6.4597   -1.2650    3.2002 C   0  0  0  1  0  0  0  0  0  0  0  0
   -5.7685    1.6971   -0.4857 C   0  0  0  1  0  0  0  0  0  0  0  0
   -2.2678   -1.8028    0.5704 C   0  0  0  1  0  0  0  0  0  0  0  0
   -5.1629   -2.0114    3.4990 C   0  0  0  1  0  0  0  0  0  0  0  0
    1.1174    2.3283    1.0441 C   0  0  0  1  0  0  0  0  0  0  0  0
    2.2762    3.1993    3.0840 C   0  0  0  1  0  0  0  0  0  0  0  0
   -0.9377    1.0517    0.5762 C   0  0  0  1  0  0  0  0  0  0  0  0
    2.2505    3.9948    4.3767 C   0  0  0  1  0  0  0  0  0  0  0  0
   -0.2049    2.1538    0.3822 C   0  0  0  1  0  0  0  0  0  0  0  0
   -3.3224    1.7089   -0.0302 C   0  0  0  1  0  0  0  0  0  0  0  0
    3.5584    4.6600    4.7599 C   0  0  0  1  0  0  0  0  0  0  0  0
   -4.2811   -0.3136   -0.0425 C   0  0  0  1  0  0  0  0  0  0  0  0
   -1.1301   -2.1303   -0.3438 C   0  0  0  1  0  0  0  0  0  0  0  0
   -1.0727   -3.1080   -1.2130 C   0  0  0  1  0  0  0  0  0  0  0  0
   -2.2212   -3.9361   -1.7240 C   0  0  0  1  0  0  0  0  0  0  0  0
    3.4297    5.9238    5.5946 C   0  0  0  1  0  0  0  0  0  0  0  0
   -2.5419   -3.7654   -3.2031 C   0  0  0  1  0  0  0  0  0  0  0  0
   -2.9971   -2.3605   -3.5627 C   0  0  0  1  0  0  0  0  0  0  0  0
   -3.2580   -2.1863   -5.0193 C   0  0  0  1  0  0  0  0  0  0  0  0
   -5.0045   -1.0353    5.2400 H   0  0  0  1  0  0  0  0  0  0  0  0
   -8.8102   -0.9413    6.5188 H   0  0  0  1  0  0  0  0  0  0  0  0
   -7.2088   -1.0339    7.2112 H   0  0  0  1  0  0  0  0  0  0  0  0
   -8.2537   -2.4346    7.2350 H   0  0  0  1  0  0  0  0  0  0  0  0
   -3.6095   -2.6374    6.2746 H   0  0  0  1  0  0  0  0  0  0  0  0
   -2.5894   -1.9834    5.0159 H   0  0  0  1  0  0  0  0  0  0  0  0
   -3.4631   -3.4729    4.7472 H   0  0  0  1  0  0  0  0  0  0  0  0
    1.6675    3.2061   -0.6263 H   0  0  0  1  0  0  0  0  0  0  0  0
   -7.3898   -0.1044    4.6978 H   0  0  0  1  0  0  0  0  0  0  0  0
   -8.0374    0.5999    1.7710 H   0  0  0  1  0  0  0  0  0  0  0  0
   -7.0524   -0.2569    0.6092 H   0  0  0  1  0  0  0  0  0  0  0  0
   -6.1537    0.8221    3.1918 H   0  0  0  1  0  0  0  0  0  0  0  0
   -5.1838   -0.0564    2.0335 H   0  0  0  1  0  0  0  0  0  0  0  0
   -6.0809    2.3508    1.4973 H   0  0  0  1  0  0  0  0  0  0  0  0
   -7.5182    2.3435    0.5033 H   0  0  0  1  0  0  0  0  0  0  0  0
    0.2717    2.5257    2.9970 H   0  0  0  1  0  0  0  0  0  0  0  0
    0.5576    4.0466    2.1852 H   0  0  0  1  0  0  0  0  0  0  0  0
   -7.0758   -1.8797    2.5777 H   0  0  0  1  0  0  0  0  0  0  0  0
   -6.3019    1.1371   -1.2251 H   0  0  0  1  0  0  0  0  0  0  0  0
   -5.5761    2.6830   -0.8543 H   0  0  0  1  0  0  0  0  0  0  0  0
   -2.9970   -2.5814    0.4879 H   0  0  0  1  0  0  0  0  0  0  0  0
   -1.8923   -1.7698    1.5719 H   0  0  0  1  0  0  0  0  0  0  0  0
    1.5220    1.3594    1.2500 H   0  0  0  1  0  0  0  0  0  0  0  0
    2.9621    3.6775    2.4164 H   0  0  0  1  0  0  0  0  0  0  0  0
    2.6265    2.2139    3.3104 H   0  0  0  1  0  0  0  0  0  0  0  0
   -0.4208    0.2574    1.0047 H   0  0  0  1  0  0  0  0  0  0  0  0
    1.9751    3.3291    5.1678 H   0  0  0  1  0  0  0  0  0  0  0  0
    1.5083    4.7592    4.2784 H   0  0  0  1  0  0  0  0  0  0  0  0
   -0.5655    2.9028   -0.2426 H   0  0  0  1  0  0  0  0  0  0  0  0
    4.0766    4.9119    3.8583 H   0  0  0  1  0  0  0  0  0  0  0  0
    4.1362    3.9536    5.3185 H   0  0  0  1  0  0  0  0  0  0  0  0
   -0.2941   -1.5148   -0.2824 H   0  0  0  1  0  0  0  0  0  0  0  0
   -0.1314   -3.3372   -1.5914 H   0  0  0  1  0  0  0  0  0  0  0  0
   -3.0938   -3.6712   -1.1643 H   0  0  0  1  0  0  0  0  0  0  0  0
   -1.9868   -4.9662   -1.5538 H   0  0  0  1  0  0  0  0  0  0  0  0
    2.5324    5.8782    6.1758 H   0  0  0  1  0  0  0  0  0  0  0  0
    3.3926    6.7757    4.9481 H   0  0  0  1  0  0  0  0  0  0  0  0
    4.2733    6.0073    6.2474 H   0  0  0  1  0  0  0  0  0  0  0  0
   -3.3211   -4.4513   -3.4626 H   0  0  0  1  0  0  0  0  0  0  0  0
   -1.6629   -3.9925   -3.7693 H   0  0  0  1  0  0  0  0  0  0  0  0
   -2.2348   -1.6697   -3.2682 H   0  0  0  1  0  0  0  0  0  0  0  0
   -3.8986   -2.1471   -3.0273 H   0  0  0  1  0  0  0  0  0  0  0  0
  1 34  1  0  0  0  0
  2  4  1  0  0  0  0
  3  4  1  0  0  0  0
  4  5  1  0  0  0  0
  4 32  1  0  0  0  0
  6 10  1  0  0  0  0
  6 26  1  0  0  0  0
  6 42  1  0  0  0  0
  7  8  1  0  0  0  0
  7  9  2  0  0  0  0
  7 13  1  0  0  0  0
  8 43  1  0  0  0  0
  8 44  1  0  0  0  0
  8 45  1  0  0  0  0
 10 46  1  0  0  0  0
 10 47  1  0  0  0  0
 10 48  1  0  0  0  0
 11 27  1  0  0  0  0
 11 49  1  0  0  0  0
 12 26  2  0  0  0  0
 13 23  1  0  0  0  0
 13 50  1  0  0  0  0
 14 41  1  0  0  0  0
 15 24  1  0  0  0  0
 15 32  4  0  0  0  0
 15 34  4  0  0  0  0
 16 41  2  0  0  0  0
 17 18  1  0  0  0  0
 17 20  1  0  0  0  0
 17 51  1  0  0  0  0
 17 52  1  0  0  0  0
 18 23  1  0  0  0  0
 18 53  1  0  0  0  0
 18 54  1  0  0  0  0
 19 21  4  0  0  0  0
 19 29  1  0  0  0  0
 19 32  4  0  0  0  0
 20 24  1  0  0  0  0
 20 55  1  0  0  0  0
 20 56  1  0  0  0  0
 21 25  1  0  0  0  0
 21 34  4  0  0  0  0
 22 27  1  0  0  0  0
 22 28  1  0  0  0  0
 22 57  1  0  0  0  0
 22 58  1  0  0  0  0
 23 26  1  0  0  0  0
 23 59  1  0  0  0  0
 24 60  1  0  0  0  0
 24 61  1  0  0  0  0
 25 35  1  0  0  0  0
 25 62  1  0  0  0  0
 25 63  1  0  0  0  0
 27 31  1  0  0  0  0
 27 64  1  0  0  0  0
 28 30  1  0  0  0  0
 28 65  1  0  0  0  0
 28 66  1  0  0  0  0
 29 31  2  0  0  0  0
 29 67  1  0  0  0  0
 30 33  1  0  0  0  0
 30 68  1  0  0  0  0
 30 69  1  0  0  0  0
 31 70  1  0  0  0  0
 33 38  1  0  0  0  0
 33 71  1  0  0  0  0
 33 72  1  0  0  0  0
 35 36  2  0  0  0  0
 35 73  1  0  0  0  0
 36 37  1  0  0  0  0
 36 74  1  0  0  0  0
 37 39  1  0  0  0  0
 37 75  1  0  0  0  0
 37 76  1  0  0  0  0
 38 77  1  0  0  0  0
 38 78  1  0  0  0  0
 38 79  1  0  0  0  0
 39 40  1  0  0  0  0
 39 80  1  0  0  0  0
 39 81  1  0  0  0  0
 40 41  1  0  0  0  0
 40 82  1  0  0  0  0
 40 83  1  0  0  0  0
M  END
> <ConfClashScore>
0 

> <ConfOneFourInteractionScore>
-0.982535 

> <ConfScore>
0.225347 

> <ConfScorePBest>
0.00273578 

> <ConfTolerance>
2.54726 

$$$$
9548876
  PyMOL2.2          3D                             0

 83 83  0  0  0  0  0  0  0  0999 V2000
   -5.0102   -1.0333   -0.1340 H   0  0  0  1  0  0  0  0  0  0  0  0
   -3.8052    3.5410   -0.9204 H   0  0  0  1  0  0  0  0  0  0  0  0
   -2.1466    3.4404   -0.3805 H   0  0  0  1  0  0  0  0  0  0  0  0
   -3.1592    3.1887   -0.1436 C   0  0  0  1  0  0  0  0  0  0  0  0
   -3.4337    3.6471    0.7835 H   0  0  0  1  0  0  0  0  0  0  0  0
   -9.5335    6.5762   -1.5113 N   0  0  0  1  0  0  0  0  0  0  0  0
   -9.3222    3.6365   -2.4316 C   0  0  0  1  0  0  0  0  0  0  0  0
  -10.2254    2.9539   -3.4404 C   0  0  0  1  0  0  0  0  0  0  0  0
   -8.1556    3.8822   -2.6906 O   0  0  0  1  0  0  0  0  0  0  0  0
   -9.6068    8.0057   -1.7739 C   0  0  0  1  0  0  0  0  0  0  0  0
    1.6164    3.6772    0.1059 O   0  0  0  1  0  0  0  0  0  0  0  0
   -8.6475    6.8006    0.5347 O   0  0  0  1  0  0  0  0  0  0  0  0
   -9.8900    3.9445   -1.2556 N   0  0  0  1  0  0  0  0  0  0  0  0
   -1.0745   -7.2984   -0.5098 O   0  5  0  1  0  0  0  0  0  0  0  0
   -4.4661    1.0567   -0.2257 N   0  0  0  1  0  0  0  0  0  0  0  0
   -2.1723   -7.2640    1.4823 O   0  0  0  1  0  0  0  0  0  0  0  0
   -7.9525    2.4677    0.5457 C   0  0  0  1  0  0  0  0  0  0  0  0
   -7.8486    3.9340    0.1589 C   0  0  0  1  0  0  0  0  0  0  0  0
   -2.3253    0.7598    0.2931 C   0  0  0  1  0  0  0  0  0  0  0  0
   -6.6029    1.8104    0.7844 C   0  0  0  1  0  0  0  0  0  0  0  0
   -2.9543   -0.4936    0.2800 C   0  0  0  1  0  0  0  0  0  0  0  0
    1.0258    2.8120    2.2596 C   0  0  0  1  0  0  0  0  0  0  0  0
   -9.2043    4.5803   -0.1405 C   0  0  0  1  0  0  0  0  0  0  0  0
   -5.7796    1.6482   -0.4821 C   0  0  0  1  0  0  0  0  0  0  0  0
   -2.2974   -1.8229    0.5685 C   0  0  0  1  0  0  0  0  0  0  0  0
   -9.0758    6.0854   -0.3560 C   0  0  0  1  0  0  0  0  0  0  0  0
    1.0849    2.5190    0.7635 C   0  0  0  1  0  0  0  0  0  0  0  0
    0.3263    1.7630    3.1032 C   0  0  0  1  0  0  0  0  0  0  0  0
   -0.9261    1.0619    0.5788 C   0  0  0  1  0  0  0  0  0  0  0  0
    0.2863    2.0438    4.5931 C   0  0  0  1  0  0  0  0  0  0  0  0
   -0.2329    2.1052    0.1896 C   0  0  0  1  0  0  0  0  0  0  0  0
   -3.2876    1.7091   -0.0229 C   0  0  0  1  0  0  0  0  0  0  0  0
   -0.1244    0.8389    5.4222 C   0  0  0  1  0  0  0  0  0  0  0  0
   -4.2824   -0.2959   -0.0439 C   0  0  0  1  0  0  0  0  0  0  0  0
   -1.3310   -1.8716    1.7091 C   0  0  0  1  0  0  0  0  0  0  0  0
   -0.7376   -2.9326    2.1958 C   0  0  0  1  0  0  0  0  0  0  0  0
   -0.6644   -4.2683    1.5084 C   0  0  0  1  0  0  0  0  0  0  0  0
    0.1151    1.0223    6.9100 C   0  0  0  1  0  0  0  0  0  0  0  0
    0.1162   -5.3631    2.1924 C   0  0  0  1  0  0  0  0  0  0  0  0
    0.1531   -6.6609    1.4020 C   0  0  0  1  0  0  0  0  0  0  0  0
   -1.1524   -7.0997    0.8334 C   0  0  0  1  0  0  0  0  0  0  0  0
   -9.8301    5.9519   -2.2060 H   0  0  0  1  0  0  0  0  0  0  0  0
   -9.8758    3.1609   -4.4303 H   0  0  0  1  0  0  0  0  0  0  0  0
  -11.2242    3.3218   -3.3309 H   0  0  0  1  0  0  0  0  0  0  0  0
  -10.2134    1.8973   -3.2719 H   0  0  0  1  0  0  0  0  0  0  0  0
   -9.0946    8.2279   -2.6866 H   0  0  0  1  0  0  0  0  0  0  0  0
   -9.1479    8.5401   -0.9684 H   0  0  0  1  0  0  0  0  0  0  0  0
  -10.6319    8.3002   -1.8596 H   0  0  0  1  0  0  0  0  0  0  0  0
    1.4567    4.4543    0.6465 H   0  0  0  1  0  0  0  0  0  0  0  0
  -10.8378    3.7246   -1.1386 H   0  0  0  1  0  0  0  0  0  0  0  0
   -8.4505    1.9433   -0.2428 H   0  0  0  1  0  0  0  0  0  0  0  0
   -8.5293    2.3938    1.4439 H   0  0  0  1  0  0  0  0  0  0  0  0
   -7.2354    4.0118   -0.7145 H   0  0  0  1  0  0  0  0  0  0  0  0
   -7.3899    4.4661    0.9659 H   0  0  0  1  0  0  0  0  0  0  0  0
   -6.7674    0.8419    1.2084 H   0  0  0  1  0  0  0  0  0  0  0  0
   -6.0493    2.4129    1.4740 H   0  0  0  1  0  0  0  0  0  0  0  0
    0.5104    3.7400    2.3936 H   0  0  0  1  0  0  0  0  0  0  0  0
    2.0300    2.9062    2.6168 H   0  0  0  1  0  0  0  0  0  0  0  0
   -9.8092    4.4440    0.7315 H   0  0  0  1  0  0  0  0  0  0  0  0
   -6.3141    1.0158   -1.1598 H   0  0  0  1  0  0  0  0  0  0  0  0
   -5.6410    2.6116   -0.9266 H   0  0  0  1  0  0  0  0  0  0  0  0
   -1.7699   -2.1199   -0.3138 H   0  0  0  1  0  0  0  0  0  0  0  0
   -3.0749   -2.5286    0.7744 H   0  0  0  1  0  0  0  0  0  0  0  0
    1.7666    1.7062    0.6239 H   0  0  0  1  0  0  0  0  0  0  0  0
    0.8319    0.8315    2.9569 H   0  0  0  1  0  0  0  0  0  0  0  0
   -0.6825    1.6802    2.7563 H   0  0  0  1  0  0  0  0  0  0  0  0
   -0.4176    0.3661    1.1610 H   0  0  0  1  0  0  0  0  0  0  0  0
   -0.4143    2.8327    4.7709 H   0  0  0  1  0  0  0  0  0  0  0  0
    1.2612    2.3546    4.9060 H   0  0  0  1  0  0  0  0  0  0  0  0
   -0.6292    2.6882   -0.5751 H   0  0  0  1  0  0  0  0  0  0  0  0
    0.4376   -0.0089    5.0901 H   0  0  0  1  0  0  0  0  0  0  0  0
   -1.1676    0.6593    5.2661 H   0  0  0  1  0  0  0  0  0  0  0  0
   -1.1060   -0.9644    2.1652 H   0  0  0  1  0  0  0  0  0  0  0  0
   -0.2831   -2.8451    3.1271 H   0  0  0  1  0  0  0  0  0  0  0  0
   -0.2199   -4.1102    0.5480 H   0  0  0  1  0  0  0  0  0  0  0  0
   -1.6673   -4.6199    1.3842 H   0  0  0  1  0  0  0  0  0  0  0  0
   -0.3877    1.9048    7.2465 H   0  0  0  1  0  0  0  0  0  0  0  0
    1.1650    1.1187    7.0928 H   0  0  0  1  0  0  0  0  0  0  0  0
   -0.2631    0.1728    7.4392 H   0  0  0  1  0  0  0  0  0  0  0  0
   -0.3342   -5.5576    3.1433 H   0  0  0  1  0  0  0  0  0  0  0  0
    1.1211   -5.0245    2.3357 H   0  0  0  1  0  0  0  0  0  0  0  0
    0.5062   -7.4336    2.0525 H   0  0  0  1  0  0  0  0  0  0  0  0
    0.8403   -6.5345    0.5917 H   0  0  0  1  0  0  0  0  0  0  0  0
  1 34  1  0  0  0  0
  2  4  1  0  0  0  0
  3  4  1  0  0  0  0
  4  5  1  0  0  0  0
  4 32  1  0  0  0  0
  6 10  1  0  0  0  0
  6 26  1  0  0  0  0
  6 42  1  0  0  0  0
  7  8  1  0  0  0  0
  7  9  2  0  0  0  0
  7 13  1  0  0  0  0
  8 43  1  0  0  0  0
  8 44  1  0  0  0  0
  8 45  1  0  0  0  0
 10 46  1  0  0  0  0
 10 47  1  0  0  0  0
 10 48  1  0  0  0  0
 11 27  1  0  0  0  0
 11 49  1  0  0  0  0
 12 26  2  0  0  0  0
 13 23  1  0  0  0  0
 13 50  1  0  0  0  0
 14 41  1  0  0  0  0
 15 24  1  0  0  0  0
 15 32  4  0  0  0  0
 15 34  4  0  0  0  0
 16 41  2  0  0  0  0
 17 18  1  0  0  0  0
 17 20  1  0  0  0  0
 17 51  1  0  0  0  0
 17 52  1  0  0  0  0
 18 23  1  0  0  0  0
 18 53  1  0  0  0  0
 18 54  1  0  0  0  0
 19 21  4  0  0  0  0
 19 29  1  0  0  0  0
 19 32  4  0  0  0  0
 20 24  1  0  0  0  0
 20 55  1  0  0  0  0
 20 56  1  0  0  0  0
 21 25  1  0  0  0  0
 21 34  4  0  0  0  0
 22 27  1  0  0  0  0
 22 28  1  0  0  0  0
 22 57  1  0  0  0  0
 22 58  1  0  0  0  0
 23 26  1  0  0  0  0
 23 59  1  0  0  0  0
 24 60  1  0  0  0  0
 24 61  1  0  0  0  0
 25 35  1  0  0  0  0
 25 62  1  0  0  0  0
 25 63  1  0  0  0  0
 27 31  1  0  0  0  0
 27 64  1  0  0  0  0
 28 30  1  0  0  0  0
 28 65  1  0  0  0  0
 28 66  1  0  0  0  0
 29 31  2  0  0  0  0
 29 67  1  0  0  0  0
 30 33  1  0  0  0  0
 30 68  1  0  0  0  0
 30 69  1  0  0  0  0
 31 70  1  0  0  0  0
 33 38  1  0  0  0  0
 33 71  1  0  0  0  0
 33 72  1  0  0  0  0
 35 36  2  0  0  0  0
 35 73  1  0  0  0  0
 36 37  1  0  0  0  0
 36 74  1  0  0  0  0
 37 39  1  0  0  0  0
 37 75  1  0  0  0  0
 37 76  1  0  0  0  0
 38 77  1  0  0  0  0
 38 78  1  0  0  0  0
 38 79  1  0  0  0  0
 39 40  1  0  0  0  0
 39 80  1  0  0  0  0
 39 81  1  0  0  0  0
 40 41  1  0  0  0  0
 40 82  1  0  0  0  0
 40 83  1  0  0  0  0
M  END
> <ConfClashScore>
0 

> <ConfOneFourInteractionScore>
-0.980314 

> <ConfScore>
0.227923 

> <ConfScorePBest>
0.0027073 

> <ConfTolerance>
2.46522 

$$$$
9548876
  PyMOL2.2          3D                             0

 83 83  0  0  0  0  0  0  0  0999 V2000
   -5.0012   -1.0276   -0.1510 H   0  0  0  1  0  0  0  0  0  0  0  0
   -2.1658    3.5005   -0.0488 H   0  0  0  1  0  0  0  0  0  0  0  0
   -3.7776    3.6457    0.6096 H   0  0  0  1  0  0  0  0  0  0  0  0
   -3.1841    3.1896   -0.1549 C   0  0  0  1  0  0  0  0  0  0  0  0
   -3.5493    3.4869   -1.1157 H   0  0  0  1  0  0  0  0  0  0  0  0
   -8.4725    5.7416   -1.7900 N   0  0  0  1  0  0  0  0  0  0  0  0
   -5.1674    6.6011    0.1518 C   0  0  0  1  0  0  0  0  0  0  0  0
   -4.9553    8.0803    0.4090 C   0  0  0  1  0  0  0  0  0  0  0  0
   -4.2179    5.8272    0.0622 O   0  0  0  1  0  0  0  0  0  0  0  0
   -9.3025    5.8184   -2.9829 C   0  0  0  1  0  0  0  0  0  0  0  0
    1.8825    1.4848    0.9647 O   0  0  0  1  0  0  0  0  0  0  0  0
   -7.4907    3.7847   -2.3316 O   0  0  0  1  0  0  0  0  0  0  0  0
   -6.4390    6.2092    0.0323 N   0  0  0  1  0  0  0  0  0  0  0  0
   -0.1334   -7.0856    4.9608 O   0  5  0  1  0  0  0  0  0  0  0  0
   -4.4486    1.0606   -0.2333 N   0  0  0  1  0  0  0  0  0  0  0  0
    0.1672   -7.3706    2.7240 O   0  0  0  1  0  0  0  0  0  0  0  0
   -7.7610    2.7293    0.7490 C   0  0  0  1  0  0  0  0  0  0  0  0
   -7.5705    4.2202    0.8785 C   0  0  0  1  0  0  0  0  0  0  0  0
   -2.3080    0.7523    0.2798 C   0  0  0  1  0  0  0  0  0  0  0  0
   -6.4709    1.9417    0.9016 C   0  0  0  1  0  0  0  0  0  0  0  0
   -2.9422   -0.4985    0.2617 C   0  0  0  1  0  0  0  0  0  0  0  0
    1.3393    3.6318    0.0163 C   0  0  0  1  0  0  0  0  0  0  0  0
   -6.8027    4.8385   -0.2943 C   0  0  0  1  0  0  0  0  0  0  0  0
   -5.7465    1.7117   -0.4138 C   0  0  0  1  0  0  0  0  0  0  0  0
   -2.2884   -1.8357    0.5430 C   0  0  0  1  0  0  0  0  0  0  0  0
   -7.6424    4.7197   -1.5627 C   0  0  0  1  0  0  0  0  0  0  0  0
    0.9956    2.5866    1.0813 C   0  0  0  1  0  0  0  0  0  0  0  0
    2.8215    3.8960   -0.1863 C   0  0  0  1  0  0  0  0  0  0  0  0
   -0.9247    1.0081    0.6625 C   0  0  0  1  0  0  0  0  0  0  0  0
    3.1196    4.7555   -1.4053 C   0  0  0  1  0  0  0  0  0  0  0  0
   -0.4297    2.1632    0.9694 C   0  0  0  1  0  0  0  0  0  0  0  0
   -3.2671    1.7072   -0.0295 C   0  0  0  1  0  0  0  0  0  0  0  0
    4.6095    5.0357   -1.5155 C   0  0  0  1  0  0  0  0  0  0  0  0
   -4.2702   -0.2936   -0.0587 C   0  0  0  1  0  0  0  0  0  0  0  0
   -2.9645   -3.0027   -0.0930 C   0  0  0  1  0  0  0  0  0  0  0  0
   -3.1567   -4.2113    0.3729 C   0  0  0  1  0  0  0  0  0  0  0  0
   -3.0171   -4.6657    1.8012 C   0  0  0  1  0  0  0  0  0  0  0  0
    4.9579    6.0158   -2.6238 C   0  0  0  1  0  0  0  0  0  0  0  0
   -1.7266   -5.4017    2.0637 C   0  0  0  1  0  0  0  0  0  0  0  0
   -1.4931   -5.8186    3.5067 C   0  0  0  1  0  0  0  0  0  0  0  0
   -0.4093   -6.8305    3.6537 C   0  0  0  1  0  0  0  0  0  0  0  0
   -8.5244    6.4645   -1.1304 H   0  0  0  1  0  0  0  0  0  0  0  0
   -4.3107    8.4848   -0.3433 H   0  0  0  1  0  0  0  0  0  0  0  0
   -4.5076    8.2142    1.3715 H   0  0  0  1  0  0  0  0  0  0  0  0
   -5.8979    8.5858    0.3801 H   0  0  0  1  0  0  0  0  0  0  0  0
  -10.3347    5.7858   -2.7026 H   0  0  0  1  0  0  0  0  0  0  0  0
   -9.0813    4.9915   -3.6249 H   0  0  0  1  0  0  0  0  0  0  0  0
   -9.1019    6.7344   -3.4983 H   0  0  0  1  0  0  0  0  0  0  0  0
    1.3937    0.7085    0.6817 H   0  0  0  1  0  0  0  0  0  0  0  0
   -7.1518    6.8678    0.1694 H   0  0  0  1  0  0  0  0  0  0  0  0
   -8.1725    2.5225   -0.2168 H   0  0  0  1  0  0  0  0  0  0  0  0
   -8.4462    2.4079    1.5054 H   0  0  0  1  0  0  0  0  0  0  0  0
   -7.0282    4.4159    1.7799 H   0  0  0  1  0  0  0  0  0  0  0  0
   -8.5342    4.6818    0.9341 H   0  0  0  1  0  0  0  0  0  0  0  0
   -6.7033    0.9900    1.3319 H   0  0  0  1  0  0  0  0  0  0  0  0
   -5.8199    2.4809    1.5576 H   0  0  0  1  0  0  0  0  0  0  0  0
    0.8756    4.5540    0.2979 H   0  0  0  1  0  0  0  0  0  0  0  0
    0.9336    3.2981   -0.9159 H   0  0  0  1  0  0  0  0  0  0  0  0
   -5.9082    4.2689   -0.4372 H   0  0  0  1  0  0  0  0  0  0  0  0
   -6.3569    1.0926   -1.0376 H   0  0  0  1  0  0  0  0  0  0  0  0
   -5.5925    2.6573   -0.8903 H   0  0  0  1  0  0  0  0  0  0  0  0
   -2.2842   -1.9889    1.6020 H   0  0  0  1  0  0  0  0  0  0  0  0
   -1.2813   -1.7970    0.1837 H   0  0  0  1  0  0  0  0  0  0  0  0
    1.1278    3.0435    2.0398 H   0  0  0  1  0  0  0  0  0  0  0  0
    3.3207    2.9568   -0.3031 H   0  0  0  1  0  0  0  0  0  0  0  0
    3.1988    4.3955    0.6815 H   0  0  0  1  0  0  0  0  0  0  0  0
   -0.2807    0.1920    0.6912 H   0  0  0  1  0  0  0  0  0  0  0  0
    2.5937    5.6831   -1.3176 H   0  0  0  1  0  0  0  0  0  0  0  0
    2.7932    4.2416   -2.2852 H   0  0  0  1  0  0  0  0  0  0  0  0
   -1.1295    2.9065    1.1675 H   0  0  0  1  0  0  0  0  0  0  0  0
    5.1150    4.1124   -1.7079 H   0  0  0  1  0  0  0  0  0  0  0  0
    4.9482    5.4412   -0.5851 H   0  0  0  1  0  0  0  0  0  0  0  0
   -3.3388   -2.8313   -1.0480 H   0  0  0  1  0  0  0  0  0  0  0  0
   -3.4361   -4.9358   -0.3189 H   0  0  0  1  0  0  0  0  0  0  0  0
   -3.8338   -5.3171    2.0327 H   0  0  0  1  0  0  0  0  0  0  0  0
   -3.0544   -3.8061    2.4373 H   0  0  0  1  0  0  0  0  0  0  0  0
    6.0083    5.9716   -2.8226 H   0  0  0  1  0  0  0  0  0  0  0  0
    4.6943    7.0070   -2.3189 H   0  0  0  1  0  0  0  0  0  0  0  0
    4.4162    5.7589   -3.5101 H   0  0  0  1  0  0  0  0  0  0  0  0
   -0.9185   -4.7650    1.7698 H   0  0  0  1  0  0  0  0  0  0  0  0
   -1.7227   -6.2854    1.4606 H   0  0  0  1  0  0  0  0  0  0  0  0
   -2.4008   -6.2333    3.8925 H   0  0  0  1  0  0  0  0  0  0  0  0
   -1.2278   -4.9506    4.0733 H   0  0  0  1  0  0  0  0  0  0  0  0
  1 34  1  0  0  0  0
  2  4  1  0  0  0  0
  3  4  1  0  0  0  0
  4  5  1  0  0  0  0
  4 32  1  0  0  0  0
  6 10  1  0  0  0  0
  6 26  1  0  0  0  0
  6 42  1  0  0  0  0
  7  8  1  0  0  0  0
  7  9  2  0  0  0  0
  7 13  1  0  0  0  0
  8 43  1  0  0  0  0
  8 44  1  0  0  0  0
  8 45  1  0  0  0  0
 10 46  1  0  0  0  0
 10 47  1  0  0  0  0
 10 48  1  0  0  0  0
 11 27  1  0  0  0  0
 11 49  1  0  0  0  0
 12 26  2  0  0  0  0
 13 23  1  0  0  0  0
 13 50  1  0  0  0  0
 14 41  1  0  0  0  0
 15 24  1  0  0  0  0
 15 32  4  0  0  0  0
 15 34  4  0  0  0  0
 16 41  2  0  0  0  0
 17 18  1  0  0  0  0
 17 20  1  0  0  0  0
 17 51  1  0  0  0  0
 17 52  1  0  0  0  0
 18 23  1  0  0  0  0
 18 53  1  0  0  0  0
 18 54  1  0  0  0  0
 19 21  4  0  0  0  0
 19 29  1  0  0  0  0
 19 32  4  0  0  0  0
 20 24  1  0  0  0  0
 20 55  1  0  0  0  0
 20 56  1  0  0  0  0
 21 25  1  0  0  0  0
 21 34  4  0  0  0  0
 22 27  1  0  0  0  0
 22 28  1  0  0  0  0
 22 57  1  0  0  0  0
 22 58  1  0  0  0  0
 23 26  1  0  0  0  0
 23 59  1  0  0  0  0
 24 60  1  0  0  0  0
 24 61  1  0  0  0  0
 25 35  1  0  0  0  0
 25 62  1  0  0  0  0
 25 63  1  0  0  0  0
 27 31  1  0  0  0  0
 27 64  1  0  0  0  0
 28 30  1  0  0  0  0
 28 65  1  0  0  0  0
 28 66  1  0  0  0  0
 29 31  2  0  0  0  0
 29 67  1  0  0  0  0
 30 33  1  0  0  0  0
 30 68  1  0  0  0  0
 30 69  1  0  0  0  0
 31 70  1  0  0  0  0
 33 38  1  0  0  0  0
 33 71  1  0  0  0  0
 33 72  1  0  0  0  0
 35 36  2  0  0  0  0
 35 73  1  0  0  0  0
 36 37  1  0  0  0  0
 36 74  1  0  0  0  0
 37 39  1  0  0  0  0
 37 75  1  0  0  0  0
 37 76  1  0  0  0  0
 38 77  1  0  0  0  0
 38 78  1  0  0  0  0
 38 79  1  0  0  0  0
 39 40  1  0  0  0  0
 39 80  1  0  0  0  0
 39 81  1  0  0  0  0
 40 41  1  0  0  0  0
 40 82  1  0  0  0  0
 40 83  1  0  0  0  0
M  END
> <ConfClashScore>
0 

> <ConfOneFourInteractionScore>
-0.98891 

> <ConfScore>
0.231001 

> <ConfScorePBest>
0.00267882 

> <ConfTolerance>
2.24625 

$$$$
9548876
  PyMOL2.2          3D                             0

 83 83  0  0  0  0  0  0  0  0999 V2000
   -4.9876   -1.0382   -0.1252 H   0  0  0  1  0  0  0  0  0  0  0  0
   -4.1577    3.6147    0.0413 H   0  0  0  1  0  0  0  0  0  0  0  0
   -2.8891    3.4419   -1.1476 H   0  0  0  1  0  0  0  0  0  0  0  0
   -3.1954    3.1895   -0.1539 C   0  0  0  1  0  0  0  0  0  0  0  0
   -2.4859    3.5761    0.5476 H   0  0  0  1  0  0  0  0  0  0  0  0
   -6.5017    0.9969    6.7324 N   0  0  0  1  0  0  0  0  0  0  0  0
   -4.7941   -0.1089    4.5244 C   0  0  0  1  0  0  0  0  0  0  0  0
   -3.3304   -0.4950    4.4362 C   0  0  0  1  0  0  0  0  0  0  0  0
   -5.6750   -0.9618    4.5945 O   0  0  0  1  0  0  0  0  0  0  0  0
   -7.0694    0.6570    8.0285 C   0  0  0  1  0  0  0  0  0  0  0  0
    2.0345    2.0051    0.0921 O   0  0  0  1  0  0  0  0  0  0  0  0
   -8.4222    1.0996    5.5545 O   0  0  0  1  0  0  0  0  0  0  0  0
   -5.0508    1.2080    4.5202 N   0  0  0  1  0  0  0  0  0  0  0  0
   -0.5582    0.8851   -2.5448 O   0  5  0  1  0  0  0  0  0  0  0  0
   -4.4472    1.0526   -0.2203 N   0  0  0  1  0  0  0  0  0  0  0  0
    1.6458    0.9625   -3.0322 O   0  0  0  1  0  0  0  0  0  0  0  0
   -6.1414    1.8553    1.9380 C   0  0  0  1  0  0  0  0  0  0  0  0
   -7.0406    1.4068    3.0797 C   0  0  0  1  0  0  0  0  0  0  0  0
   -2.3056    0.7604    0.2980 C   0  0  0  1  0  0  0  0  0  0  0  0
   -6.7439    1.4754    0.5975 C   0  0  0  1  0  0  0  0  0  0  0  0
   -2.9324   -0.4943    0.2871 C   0  0  0  1  0  0  0  0  0  0  0  0
    1.2708    3.7857    1.5504 C   0  0  0  1  0  0  0  0  0  0  0  0
   -6.4042    1.7359    4.4334 C   0  0  0  1  0  0  0  0  0  0  0  0
   -5.7150    1.7359   -0.4788 C   0  0  0  1  0  0  0  0  0  0  0  0
   -2.3278   -1.8497    0.5678 C   0  0  0  1  0  0  0  0  0  0  0  0
   -7.2100    1.2194    5.6216 C   0  0  0  1  0  0  0  0  0  0  0  0
    1.0462    2.3573    1.0554 C   0  0  0  1  0  0  0  0  0  0  0  0
    0.3261    4.1915    2.6577 C   0  0  0  1  0  0  0  0  0  0  0  0
   -0.8993    1.0104    0.5902 C   0  0  0  1  0  0  0  0  0  0  0  0
    0.5514    5.6077    3.1514 C   0  0  0  1  0  0  0  0  0  0  0  0
   -0.2644    2.1683    0.4127 C   0  0  0  1  0  0  0  0  0  0  0  0
   -3.2698    1.7075   -0.0189 C   0  0  0  1  0  0  0  0  0  0  0  0
   -0.5107    6.0811    4.1250 C   0  0  0  1  0  0  0  0  0  0  0  0
   -4.2610   -0.2994   -0.0366 C   0  0  0  1  0  0  0  0  0  0  0  0
   -2.9155   -2.8795   -0.3327 C   0  0  0  1  0  0  0  0  0  0  0  0
   -2.1762   -3.5222   -1.2050 C   0  0  0  1  0  0  0  0  0  0  0  0
   -0.7929   -3.1091   -1.6312 C   0  0  0  1  0  0  0  0  0  0  0  0
   -0.0381    7.0685    5.1796 C   0  0  0  1  0  0  0  0  0  0  0  0
   -0.7555   -1.6246   -1.9817 C   0  0  0  1  0  0  0  0  0  0  0  0
    0.5997   -1.1591   -2.4886 C   0  0  0  1  0  0  0  0  0  0  0  0
    0.6619    0.3112   -2.7222 C   0  0  0  1  0  0  0  0  0  0  0  0
   -5.5262    1.0678    6.6695 H   0  0  0  1  0  0  0  0  0  0  0  0
   -3.1381   -1.3186    5.0917 H   0  0  0  1  0  0  0  0  0  0  0  0
   -2.7240    0.3384    4.7237 H   0  0  0  1  0  0  0  0  0  0  0  0
   -3.0961   -0.7772    3.4310 H   0  0  0  1  0  0  0  0  0  0  0  0
   -7.9453    0.0584    7.8889 H   0  0  0  1  0  0  0  0  0  0  0  0
   -7.3304    1.5544    8.5496 H   0  0  0  1  0  0  0  0  0  0  0  0
   -6.3501    0.1085    8.5999 H   0  0  0  1  0  0  0  0  0  0  0  0
    2.2984    1.0914    0.2230 H   0  0  0  1  0  0  0  0  0  0  0  0
   -4.3009    1.8362    4.5777 H   0  0  0  1  0  0  0  0  0  0  0  0
   -5.1854    1.3853    2.0388 H   0  0  0  1  0  0  0  0  0  0  0  0
   -6.0233    2.9179    1.9811 H   0  0  0  1  0  0  0  0  0  0  0  0
   -7.1934    0.3500    3.0115 H   0  0  0  1  0  0  0  0  0  0  0  0
   -7.9820    1.9096    3.0032 H   0  0  0  1  0  0  0  0  0  0  0  0
   -7.6168    2.0661    0.4133 H   0  0  0  1  0  0  0  0  0  0  0  0
   -7.0084    0.4386    0.6011 H   0  0  0  1  0  0  0  0  0  0  0  0
    1.1357    4.4553    0.7268 H   0  0  0  1  0  0  0  0  0  0  0  0
    2.2739    3.8648    1.9142 H   0  0  0  1  0  0  0  0  0  0  0  0
   -6.3569    2.8017    4.5151 H   0  0  0  1  0  0  0  0  0  0  0  0
   -6.1041    1.3939   -1.4150 H   0  0  0  1  0  0  0  0  0  0  0  0
   -5.5326    2.7889   -0.5310 H   0  0  0  1  0  0  0  0  0  0  0  0
   -2.5233   -2.1185    1.5849 H   0  0  0  1  0  0  0  0  0  0  0  0
   -1.2709   -1.8037    0.4074 H   0  0  0  1  0  0  0  0  0  0  0  0
    1.1107    1.6972    1.8951 H   0  0  0  1  0  0  0  0  0  0  0  0
    0.4593    3.5203    3.4803 H   0  0  0  1  0  0  0  0  0  0  0  0
   -0.6769    4.1149    2.2930 H   0  0  0  1  0  0  0  0  0  0  0  0
   -0.3442    0.2170    0.9696 H   0  0  0  1  0  0  0  0  0  0  0  0
    0.5547    6.2648    2.3070 H   0  0  0  1  0  0  0  0  0  0  0  0
    1.5024    5.6493    3.6401 H   0  0  0  1  0  0  0  0  0  0  0  0
   -0.6856    2.9219   -0.1671 H   0  0  0  1  0  0  0  0  0  0  0  0
   -0.9017    5.2223    4.6294 H   0  0  0  1  0  0  0  0  0  0  0  0
   -1.2898    6.5494    3.5607 H   0  0  0  1  0  0  0  0  0  0  0  0
   -3.9313   -3.0933   -0.2689 H   0  0  0  1  0  0  0  0  0  0  0  0
   -2.5756   -4.3813   -1.6342 H   0  0  0  1  0  0  0  0  0  0  0  0
   -0.5052   -3.6796   -2.4896 H   0  0  0  1  0  0  0  0  0  0  0  0
   -0.1082   -3.2980   -0.8310 H   0  0  0  1  0  0  0  0  0  0  0  0
    0.7764    7.6434    4.7911 H   0  0  0  1  0  0  0  0  0  0  0  0
    0.2851    6.5344    6.0486 H   0  0  0  1  0  0  0  0  0  0  0  0
   -0.8432    7.7229    5.4414 H   0  0  0  1  0  0  0  0  0  0  0  0
   -1.0010   -1.0627   -1.1048 H   0  0  0  1  0  0  0  0  0  0  0  0
   -1.4847   -1.4370   -2.7419 H   0  0  0  1  0  0  0  0  0  0  0  0
    0.8086   -1.6596   -3.4109 H   0  0  0  1  0  0  0  0  0  0  0  0
    1.3425   -1.4205   -1.7641 H   0  0  0  1  0  0  0  0  0  0  0  0
  1 34  1  0  0  0  0
  2  4  1  0  0  0  0
  3  4  1  0  0  0  0
  4  5  1  0  0  0  0
  4 32  1  0  0  0  0
  6 10  1  0  0  0  0
  6 26  1  0  0  0  0
  6 42  1  0  0  0  0
  7  8  1  0  0  0  0
  7  9  2  0  0  0  0
  7 13  1  0  0  0  0
  8 43  1  0  0  0  0
  8 44  1  0  0  0  0
  8 45  1  0  0  0  0
 10 46  1  0  0  0  0
 10 47  1  0  0  0  0
 10 48  1  0  0  0  0
 11 27  1  0  0  0  0
 11 49  1  0  0  0  0
 12 26  2  0  0  0  0
 13 23  1  0  0  0  0
 13 50  1  0  0  0  0
 14 41  1  0  0  0  0
 15 24  1  0  0  0  0
 15 32  4  0  0  0  0
 15 34  4  0  0  0  0
 16 41  2  0  0  0  0
 17 18  1  0  0  0  0
 17 20  1  0  0  0  0
 17 51  1  0  0  0  0
 17 52  1  0  0  0  0
 18 23  1  0  0  0  0
 18 53  1  0  0  0  0
 18 54  1  0  0  0  0
 19 21  4  0  0  0  0
 19 29  1  0  0  0  0
 19 32  4  0  0  0  0
 20 24  1  0  0  0  0
 20 55  1  0  0  0  0
 20 56  1  0  0  0  0
 21 25  1  0  0  0  0
 21 34  4  0  0  0  0
 22 27  1  0  0  0  0
 22 28  1  0  0  0  0
 22 57  1  0  0  0  0
 22 58  1  0  0  0  0
 23 26  1  0  0  0  0
 23 59  1  0  0  0  0
 24 60  1  0  0  0  0
 24 61  1  0  0  0  0
 25 35  1  0  0  0  0
 25 62  1  0  0  0  0
 25 63  1  0  0  0  0
 27 31  1  0  0  0  0
 27 64  1  0  0  0  0
 28 30  1  0  0  0  0
 28 65  1  0  0  0  0
 28 66  1  0  0  0  0
 29 31  2  0  0  0  0
 29 67  1  0  0  0  0
 30 33  1  0  0  0  0
 30 68  1  0  0  0  0
 30 69  1  0  0  0  0
 31 70  1  0  0  0  0
 33 38  1  0  0  0  0
 33 71  1  0  0  0  0
 33 72  1  0  0  0  0
 35 36  2  0  0  0  0
 35 73  1  0  0  0  0
 36 37  1  0  0  0  0
 36 74  1  0  0  0  0
 37 39  1  0  0  0  0
 37 75  1  0  0  0  0
 37 76  1  0  0  0  0
 38 77  1  0  0  0  0
 38 78  1  0  0  0  0
 38 79  1  0  0  0  0
 39 40  1  0  0  0  0
 39 80  1  0  0  0  0
 39 81  1  0  0  0  0
 40 41  1  0  0  0  0
 40 82  1  0  0  0  0
 40 83  1  0  0  0  0
M  END
> <ConfClashScore>
0 

> <ConfOneFourInteractionScore>
-0.981326 

> <ConfScore>
0.234433 

> <ConfScorePBest>
0.00265034 

> <ConfTolerance>
2.58641 

$$$$
9548876
  PyMOL2.2          3D                             0

 83 83  0  0  0  0  0  0  0  0999 V2000
   -5.0070   -1.0414   -0.1052 H   0  0  0  1  0  0  0  0  0  0  0  0
   -4.0560    3.6500    0.2400 H   0  0  0  1  0  0  0  0  0  0  0  0
   -3.0389    3.4495   -1.1664 H   0  0  0  1  0  0  0  0  0  0  0  0
   -3.1688    3.1860   -0.1375 C   0  0  0  1  0  0  0  0  0  0  0  0
   -2.3236    3.5214    0.4265 H   0  0  0  1  0  0  0  0  0  0  0  0
   -3.6077   -0.0640   -5.9981 N   0  0  0  1  0  0  0  0  0  0  0  0
   -7.1913   -1.5483   -5.7070 C   0  0  0  1  0  0  0  0  0  0  0  0
   -8.5109   -2.2523   -5.4579 C   0  0  0  1  0  0  0  0  0  0  0  0
   -6.2566   -2.1223   -6.2641 O   0  0  0  1  0  0  0  0  0  0  0  0
   -2.3047   -0.6846   -5.8112 C   0  0  0  1  0  0  0  0  0  0  0  0
    1.5584    0.5701    2.7726 O   0  0  0  1  0  0  0  0  0  0  0  0
   -4.5435   -1.0391   -4.2107 O   0  0  0  1  0  0  0  0  0  0  0  0
   -7.1196   -0.2766   -5.2829 N   0  0  0  1  0  0  0  0  0  0  0  0
   -2.2914   -7.6912    0.1676 O   0  5  0  1  0  0  0  0  0  0  0  0
   -4.4703    1.0502   -0.2032 N   0  0  0  1  0  0  0  0  0  0  0  0
   -3.8618   -6.1195    0.6558 O   0  0  0  1  0  0  0  0  0  0  0  0
   -5.9670    1.1703   -2.9790 C   0  0  0  1  0  0  0  0  0  0  0  0
   -5.9558    1.6814   -4.4114 C   0  0  0  1  0  0  0  0  0  0  0  0
   -2.3219    0.7595    0.2870 C   0  0  0  1  0  0  0  0  0  0  0  0
   -5.7500    2.2644   -1.9475 C   0  0  0  1  0  0  0  0  0  0  0  0
   -2.9473   -0.4958    0.2817 C   0  0  0  1  0  0  0  0  0  0  0  0
    2.5846    0.3441    0.6093 C   0  0  0  1  0  0  0  0  0  0  0  0
   -5.9060    0.5152   -5.4037 C   0  0  0  1  0  0  0  0  0  0  0  0
   -5.7436    1.6863   -0.5426 C   0  0  0  1  0  0  0  0  0  0  0  0
   -2.2828   -1.8232    0.5608 C   0  0  0  1  0  0  0  0  0  0  0  0
   -4.6311   -0.2895   -5.1693 C   0  0  0  1  0  0  0  0  0  0  0  0
    1.3904    0.8805    1.4034 C   0  0  0  1  0  0  0  0  0  0  0  0
    2.5810    0.4227   -0.9052 C   0  0  0  1  0  0  0  0  0  0  0  0
   -0.9421    1.0607    0.5500 C   0  0  0  1  0  0  0  0  0  0  0  0
    3.9075    0.0281   -1.5319 C   0  0  0  1  0  0  0  0  0  0  0  0
    0.1051    0.3366    0.8652 C   0  0  0  1  0  0  0  0  0  0  0  0
   -3.2912    1.7061   -0.0157 C   0  0  0  1  0  0  0  0  0  0  0  0
    3.9307    0.1869   -3.0426 C   0  0  0  1  0  0  0  0  0  0  0  0
   -4.2802   -0.3019   -0.0245 C   0  0  0  1  0  0  0  0  0  0  0  0
   -3.2395   -2.9681    0.4558 C   0  0  0  1  0  0  0  0  0  0  0  0
   -3.2215   -3.8747   -0.4890 C   0  0  0  1  0  0  0  0  0  0  0  0
   -2.0729   -4.1118   -1.4325 C   0  0  0  1  0  0  0  0  0  0  0  0
    5.2960   -0.1725   -3.6005 C   0  0  0  1  0  0  0  0  0  0  0  0
   -1.9623   -5.5274   -1.9838 C   0  0  0  1  0  0  0  0  0  0  0  0
   -3.1455   -6.4096   -1.6203 C   0  0  0  1  0  0  0  0  0  0  0  0
   -3.1606   -6.6973   -0.1584 C   0  0  0  1  0  0  0  0  0  0  0  0
   -3.7391    0.5403   -6.7583 H   0  0  0  1  0  0  0  0  0  0  0  0
   -9.1703   -2.0774   -6.2822 H   0  0  0  1  0  0  0  0  0  0  0  0
   -8.9535   -1.8728   -4.5607 H   0  0  0  1  0  0  0  0  0  0  0  0
   -8.3401   -3.3036   -5.3549 H   0  0  0  1  0  0  0  0  0  0  0  0
   -2.4155   -1.7486   -5.7903 H   0  0  0  1  0  0  0  0  0  0  0  0
   -1.8809   -0.3522   -4.8867 H   0  0  0  1  0  0  0  0  0  0  0  0
   -1.6596   -0.4093   -6.6193 H   0  0  0  1  0  0  0  0  0  0  0  0
    1.1579   -0.2822    2.9594 H   0  0  0  1  0  0  0  0  0  0  0  0
   -7.9127    0.1323   -4.8778 H   0  0  0  1  0  0  0  0  0  0  0  0
   -5.1886    0.4439   -2.8719 H   0  0  0  1  0  0  0  0  0  0  0  0
   -6.9140    0.7094   -2.7906 H   0  0  0  1  0  0  0  0  0  0  0  0
   -5.0962    2.3020   -4.5559 H   0  0  0  1  0  0  0  0  0  0  0  0
   -6.8429    2.2536   -4.5867 H   0  0  0  1  0  0  0  0  0  0  0  0
   -6.5384    2.9833   -2.0275 H   0  0  0  1  0  0  0  0  0  0  0  0
   -4.8109    2.7418   -2.1347 H   0  0  0  1  0  0  0  0  0  0  0  0
    2.6872   -0.6897    0.8653 H   0  0  0  1  0  0  0  0  0  0  0  0
    3.4463    0.8824    0.9450 H   0  0  0  1  0  0  0  0  0  0  0  0
   -5.8588    0.9264   -6.3905 H   0  0  0  1  0  0  0  0  0  0  0  0
   -5.9284    2.4769    0.1543 H   0  0  0  1  0  0  0  0  0  0  0  0
   -6.5221    0.9559   -0.4688 H   0  0  0  1  0  0  0  0  0  0  0  0
   -1.8767   -1.8036    1.5505 H   0  0  0  1  0  0  0  0  0  0  0  0
   -1.4931   -1.9684   -0.1465 H   0  0  0  1  0  0  0  0  0  0  0  0
    1.3719    1.9436    1.2836 H   0  0  0  1  0  0  0  0  0  0  0  0
    2.3561    1.4287   -1.1922 H   0  0  0  1  0  0  0  0  0  0  0  0
    1.8217   -0.2331   -1.2772 H   0  0  0  1  0  0  0  0  0  0  0  0
   -0.7263    2.0752    0.4737 H   0  0  0  1  0  0  0  0  0  0  0  0
    4.1028   -0.9970   -1.2955 H   0  0  0  1  0  0  0  0  0  0  0  0
    4.6765    0.6438   -1.1143 H   0  0  0  1  0  0  0  0  0  0  0  0
    0.0368   -0.6924    0.7310 H   0  0  0  1  0  0  0  0  0  0  0  0
    3.7061    1.2028   -3.2922 H   0  0  0  1  0  0  0  0  0  0  0  0
    3.1943   -0.4582   -3.4746 H   0  0  0  1  0  0  0  0  0  0  0  0
   -3.9738   -3.0504    1.1877 H   0  0  0  1  0  0  0  0  0  0  0  0
   -4.0637   -4.4756   -0.5954 H   0  0  0  1  0  0  0  0  0  0  0  0
   -1.1657   -3.8890   -0.9107 H   0  0  0  1  0  0  0  0  0  0  0  0
   -2.1822   -3.4428   -2.2604 H   0  0  0  1  0  0  0  0  0  0  0  0
    5.2945   -0.0389   -4.6621 H   0  0  0  1  0  0  0  0  0  0  0  0
    5.5176   -1.1936   -3.3701 H   0  0  0  1  0  0  0  0  0  0  0  0
    6.0382    0.4617   -3.1625 H   0  0  0  1  0  0  0  0  0  0  0  0
   -1.0726   -5.9751   -1.5929 H   0  0  0  1  0  0  0  0  0  0  0  0
   -1.8955   -5.4719   -3.0502 H   0  0  0  1  0  0  0  0  0  0  0  0
   -3.0741   -7.3316   -2.1586 H   0  0  0  1  0  0  0  0  0  0  0  0
   -4.0521   -5.9087   -1.8887 H   0  0  0  1  0  0  0  0  0  0  0  0
  1 34  1  0  0  0  0
  2  4  1  0  0  0  0
  3  4  1  0  0  0  0
  4  5  1  0  0  0  0
  4 32  1  0  0  0  0
  6 10  1  0  0  0  0
  6 26  1  0  0  0  0
  6 42  1  0  0  0  0
  7  8  1  0  0  0  0
  7  9  2  0  0  0  0
  7 13  1  0  0  0  0
  8 43  1  0  0  0  0
  8 44  1  0  0  0  0
  8 45  1  0  0  0  0
 10 46  1  0  0  0  0
 10 47  1  0  0  0  0
 10 48  1  0  0  0  0
 11 27  1  0  0  0  0
 11 49  1  0  0  0  0
 12 26  2  0  0  0  0
 13 23  1  0  0  0  0
 13 50  1  0  0  0  0
 14 41  1  0  0  0  0
 15 24  1  0  0  0  0
 15 32  4  0  0  0  0
 15 34  4  0  0  0  0
 16 41  2  0  0  0  0
 17 18  1  0  0  0  0
 17 20  1  0  0  0  0
 17 51  1  0  0  0  0
 17 52  1  0  0  0  0
 18 23  1  0  0  0  0
 18 53  1  0  0  0  0
 18 54  1  0  0  0  0
 19 21  4  0  0  0  0
 19 29  1  0  0  0  0
 19 32  4  0  0  0  0
 20 24  1  0  0  0  0
 20 55  1  0  0  0  0
 20 56  1  0  0  0  0
 21 25  1  0  0  0  0
 21 34  4  0  0  0  0
 22 27  1  0  0  0  0
 22 28  1  0  0  0  0
 22 57  1  0  0  0  0
 22 58  1  0  0  0  0
 23 26  1  0  0  0  0
 23 59  1  0  0  0  0
 24 60  1  0  0  0  0
 24 61  1  0  0  0  0
 25 35  1  0  0  0  0
 25 62  1  0  0  0  0
 25 63  1  0  0  0  0
 27 31  1  0  0  0  0
 27 64  1  0  0  0  0
 28 30  1  0  0  0  0
 28 65  1  0  0  0  0
 28 66  1  0  0  0  0
 29 31  2  0  0  0  0
 29 67  1  0  0  0  0
 30 33  1  0  0  0  0
 30 68  1  0  0  0  0
 30 69  1  0  0  0  0
 31 70  1  0  0  0  0
 33 38  1  0  0  0  0
 33 71  1  0  0  0  0
 33 72  1  0  0  0  0
 35 36  2  0  0  0  0
 35 73  1  0  0  0  0
 36 37  1  0  0  0  0
 36 74  1  0  0  0  0
 37 39  1  0  0  0  0
 37 75  1  0  0  0  0
 37 76  1  0  0  0  0
 38 77  1  0  0  0  0
 38 78  1  0  0  0  0
 38 79  1  0  0  0  0
 39 40  1  0  0  0  0
 39 80  1  0  0  0  0
 39 81  1  0  0  0  0
 40 41  1  0  0  0  0
 40 82  1  0  0  0  0
 40 83  1  0  0  0  0
M  END
> <ConfClashScore>
0 

> <ConfOneFourInteractionScore>
-0.993161 

> <ConfScore>
0.248318 

> <ConfScorePBest>
0.00262186 

> <ConfTolerance>
2.42059 

$$$$
9548876
  PyMOL2.2          3D                             0

 83 83  0  0  0  0  0  0  0  0999 V2000
   -5.0034   -1.0416   -0.1113 H   0  0  0  1  0  0  0  0  0  0  0  0
   -2.5866    3.5678    0.6751 H   0  0  0  1  0  0  0  0  0  0  0  0
   -4.1512    3.6302   -0.0999 H   0  0  0  1  0  0  0  0  0  0  0  0
   -3.1763    3.1907   -0.1342 C   0  0  0  1  0  0  0  0  0  0  0  0
   -2.7058    3.4374   -1.0631 H   0  0  0  1  0  0  0  0  0  0  0  0
   -5.1850    7.0467   -1.1899 N   0  0  0  1  0  0  0  0  0  0  0  0
   -7.6987    5.1858   -0.2299 C   0  0  0  1  0  0  0  0  0  0  0  0
   -8.2510    4.9423    1.1727 C   0  0  0  1  0  0  0  0  0  0  0  0
   -8.3791    5.7220   -1.0890 O   0  0  0  1  0  0  0  0  0  0  0  0
   -4.7535    8.4315   -1.3095 C   0  0  0  1  0  0  0  0  0  0  0  0
    1.9212    2.9554    0.1983 O   0  0  0  1  0  0  0  0  0  0  0  0
   -5.5914    6.5497   -3.3608 O   0  0  0  1  0  0  0  0  0  0  0  0
   -6.4676    4.6975   -0.4494 N   0  0  0  1  0  0  0  0  0  0  0  0
   -3.4592   -5.0922   -5.6956 O   0  5  0  1  0  0  0  0  0  0  0  0
   -4.4722    1.0516   -0.2047 N   0  0  0  1  0  0  0  0  0  0  0  0
   -4.7553   -4.5487   -3.9069 O   0  0  0  1  0  0  0  0  0  0  0  0
   -7.0670    2.6442   -2.4880 C   0  0  0  1  0  0  0  0  0  0  0  0
   -6.6476    4.0405   -2.7981 C   0  0  0  1  0  0  0  0  0  0  0  0
   -2.3231    0.7655    0.2851 C   0  0  0  1  0  0  0  0  0  0  0  0
   -5.9170    1.7529   -2.0510 C   0  0  0  1  0  0  0  0  0  0  0  0
   -2.9452   -0.4915    0.2771 C   0  0  0  1  0  0  0  0  0  0  0  0
    0.9107    3.5559    2.3059 C   0  0  0  1  0  0  0  0  0  0  0  0
   -5.8179    4.7822   -1.7488 C   0  0  0  1  0  0  0  0  0  0  0  0
   -5.7471    1.6851   -0.5429 C   0  0  0  1  0  0  0  0  0  0  0  0
   -2.2772   -1.8177    0.5534 C   0  0  0  1  0  0  0  0  0  0  0  0
   -5.5462    6.2214   -2.1765 C   0  0  0  1  0  0  0  0  0  0  0  0
    1.0262    2.4962    1.2067 C   0  0  0  1  0  0  0  0  0  0  0  0
   -0.0823    3.1287    3.3582 C   0  0  0  1  0  0  0  0  0  0  0  0
   -0.9124    1.0200    0.5607 C   0  0  0  1  0  0  0  0  0  0  0  0
   -1.5439    3.3438    3.0039 C   0  0  0  1  0  0  0  0  0  0  0  0
   -0.3149    2.1642    0.6459 C   0  0  0  1  0  0  0  0  0  0  0  0
   -3.2948    1.7102   -0.0157 C   0  0  0  1  0  0  0  0  0  0  0  0
   -2.4244    3.1917    4.2335 C   0  0  0  1  0  0  0  0  0  0  0  0
   -4.2786   -0.3003   -0.0289 C   0  0  0  1  0  0  0  0  0  0  0  0
   -3.2217   -2.9467    0.8185 C   0  0  0  1  0  0  0  0  0  0  0  0
   -3.5190   -3.8931   -0.0397 C   0  0  0  1  0  0  0  0  0  0  0  0
   -3.2249   -3.8407   -1.5137 C   0  0  0  1  0  0  0  0  0  0  0  0
   -3.8803    3.5472    3.9798 C   0  0  0  1  0  0  0  0  0  0  0  0
   -2.7133   -5.1641   -2.0674 C   0  0  0  1  0  0  0  0  0  0  0  0
   -2.4481   -5.1290   -3.5637 C   0  0  0  1  0  0  0  0  0  0  0  0
   -3.6784   -4.8879   -4.3690 C   0  0  0  1  0  0  0  0  0  0  0  0
   -5.2139    6.6777   -0.2825 H   0  0  0  1  0  0  0  0  0  0  0  0
   -7.5437    4.3757    1.7416 H   0  0  0  1  0  0  0  0  0  0  0  0
   -9.1704    4.3992    1.1044 H   0  0  0  1  0  0  0  0  0  0  0  0
   -8.4258    5.8813    1.6549 H   0  0  0  1  0  0  0  0  0  0  0  0
   -3.8253    8.4717   -1.8402 H   0  0  0  1  0  0  0  0  0  0  0  0
   -4.6245    8.8502   -0.3334 H   0  0  0  1  0  0  0  0  0  0  0  0
   -5.4936    8.9905   -1.8430 H   0  0  0  1  0  0  0  0  0  0  0  0
    2.2846    3.8059    0.4554 H   0  0  0  1  0  0  0  0  0  0  0  0
   -5.9898    4.2690    0.2912 H   0  0  0  1  0  0  0  0  0  0  0  0
   -7.5104    2.2205   -3.3649 H   0  0  0  1  0  0  0  0  0  0  0  0
   -7.7910    2.6744   -1.7007 H   0  0  0  1  0  0  0  0  0  0  0  0
   -7.5368    4.6119   -2.9648 H   0  0  0  1  0  0  0  0  0  0  0  0
   -6.0697    4.0083   -3.6981 H   0  0  0  1  0  0  0  0  0  0  0  0
   -5.0123    2.1328   -2.4777 H   0  0  0  1  0  0  0  0  0  0  0  0
   -6.0966    0.7635   -2.4170 H   0  0  0  1  0  0  0  0  0  0  0  0
    0.5863    4.4783    1.8713 H   0  0  0  1  0  0  0  0  0  0  0  0
    1.8685    3.6935    2.7626 H   0  0  0  1  0  0  0  0  0  0  0  0
   -4.8724    4.2858   -1.6824 H   0  0  0  1  0  0  0  0  0  0  0  0
   -5.7666    2.6763   -0.1405 H   0  0  0  1  0  0  0  0  0  0  0  0
   -6.5479    1.1132   -0.1227 H   0  0  0  1  0  0  0  0  0  0  0  0
   -1.6468   -1.7017    1.4102 H   0  0  0  1  0  0  0  0  0  0  0  0
   -1.6805   -2.0744   -0.2968 H   0  0  0  1  0  0  0  0  0  0  0  0
    1.4253    1.6084    1.6510 H   0  0  0  1  0  0  0  0  0  0  0  0
    0.1252    3.6813    4.2507 H   0  0  0  1  0  0  0  0  0  0  0  0
    0.0618    2.0847    3.5429 H   0  0  0  1  0  0  0  0  0  0  0  0
   -0.3160    0.1805    0.7059 H   0  0  0  1  0  0  0  0  0  0  0  0
   -1.8371    2.6216    2.2709 H   0  0  0  1  0  0  0  0  0  0  0  0
   -1.6667    4.3287    2.6041 H   0  0  0  1  0  0  0  0  0  0  0  0
   -0.8491    2.9722    0.2673 H   0  0  0  1  0  0  0  0  0  0  0  0
   -2.0474    3.8335    5.0022 H   0  0  0  1  0  0  0  0  0  0  0  0
   -2.3758    2.1745    4.5618 H   0  0  0  1  0  0  0  0  0  0  0  0
   -3.6767   -2.9842    1.7530 H   0  0  0  1  0  0  0  0  0  0  0  0
   -3.9935   -4.7431    0.3264 H   0  0  0  1  0  0  0  0  0  0  0  0
   -2.4828   -3.0895   -1.6864 H   0  0  0  1  0  0  0  0  0  0  0  0
   -4.1243   -3.5799   -2.0314 H   0  0  0  1  0  0  0  0  0  0  0  0
   -4.4333    3.4604    4.8917 H   0  0  0  1  0  0  0  0  0  0  0  0
   -4.2884    2.8791    3.2505 H   0  0  0  1  0  0  0  0  0  0  0  0
   -3.9440    4.5524    3.6187 H   0  0  0  1  0  0  0  0  0  0  0  0
   -3.4446   -5.9198   -1.8701 H   0  0  0  1  0  0  0  0  0  0  0  0
   -1.8004   -5.4111   -1.5668 H   0  0  0  1  0  0  0  0  0  0  0  0
   -2.0276   -6.0681   -3.8572 H   0  0  0  1  0  0  0  0  0  0  0  0
   -1.7487   -4.3452   -3.7674 H   0  0  0  1  0  0  0  0  0  0  0  0
  1 34  1  0  0  0  0
  2  4  1  0  0  0  0
  3  4  1  0  0  0  0
  4  5  1  0  0  0  0
  4 32  1  0  0  0  0
  6 10  1  0  0  0  0
  6 26  1  0  0  0  0
  6 42  1  0  0  0  0
  7  8  1  0  0  0  0
  7  9  2  0  0  0  0
  7 13  1  0  0  0  0
  8 43  1  0  0  0  0
  8 44  1  0  0  0  0
  8 45  1  0  0  0  0
 10 46  1  0  0  0  0
 10 47  1  0  0  0  0
 10 48  1  0  0  0  0
 11 27  1  0  0  0  0
 11 49  1  0  0  0  0
 12 26  2  0  0  0  0
 13 23  1  0  0  0  0
 13 50  1  0  0  0  0
 14 41  1  0  0  0  0
 15 24  1  0  0  0  0
 15 32  4  0  0  0  0
 15 34  4  0  0  0  0
 16 41  2  0  0  0  0
 17 18  1  0  0  0  0
 17 20  1  0  0  0  0
 17 51  1  0  0  0  0
 17 52  1  0  0  0  0
 18 23  1  0  0  0  0
 18 53  1  0  0  0  0
 18 54  1  0  0  0  0
 19 21  4  0  0  0  0
 19 29  1  0  0  0  0
 19 32  4  0  0  0  0
 20 24  1  0  0  0  0
 20 55  1  0  0  0  0
 20 56  1  0  0  0  0
 21 25  1  0  0  0  0
 21 34  4  0  0  0  0
 22 27  1  0  0  0  0
 22 28  1  0  0  0  0
 22 57  1  0  0  0  0
 22 58  1  0  0  0  0
 23 26  1  0  0  0  0
 23 59  1  0  0  0  0
 24 60  1  0  0  0  0
 24 61  1  0  0  0  0
 25 35  1  0  0  0  0
 25 62  1  0  0  0  0
 25 63  1  0  0  0  0
 27 31  1  0  0  0  0
 27 64  1  0  0  0  0
 28 30  1  0  0  0  0
 28 65  1  0  0  0  0
 28 66  1  0  0  0  0
 29 31  2  0  0  0  0
 29 67  1  0  0  0  0
 30 33  1  0  0  0  0
 30 68  1  0  0  0  0
 30 69  1  0  0  0  0
 31 70  1  0  0  0  0
 33 38  1  0  0  0  0
 33 71  1  0  0  0  0
 33 72  1  0  0  0  0
 35 36  2  0  0  0  0
 35 73  1  0  0  0  0
 36 37  1  0  0  0  0
 36 74  1  0  0  0  0
 37 39  1  0  0  0  0
 37 75  1  0  0  0  0
 37 76  1  0  0  0  0
 38 77  1  0  0  0  0
 38 78  1  0  0  0  0
 38 79  1  0  0  0  0
 39 40  1  0  0  0  0
 39 80  1  0  0  0  0
 39 81  1  0  0  0  0
 40 41  1  0  0  0  0
 40 82  1  0  0  0  0
 40 83  1  0  0  0  0
M  END
> <ConfClashScore>
0.000418838 

> <ConfOneFourInteractionScore>
-0.988083 

> <ConfScore>
0.252458 

> <ConfScorePBest>
0.00259338 

> <ConfTolerance>
2.71829 

$$$$
9548876
  PyMOL2.2          3D                             0

 83 83  0  0  0  0  0  0  0  0999 V2000
   -5.0218   -1.0307   -0.0834 H   0  0  0  1  0  0  0  0  0  0  0  0
   -3.5252    3.5027   -1.0739 H   0  0  0  1  0  0  0  0  0  0  0  0
   -2.1379    3.4672   -0.0124 H   0  0  0  1  0  0  0  0  0  0  0  0
   -3.1659    3.1889   -0.1161 C   0  0  0  1  0  0  0  0  0  0  0  0
   -3.7426    3.6594    0.6526 H   0  0  0  1  0  0  0  0  0  0  0  0
  -10.0719    3.1431   -4.5821 N   0  0  0  1  0  0  0  0  0  0  0  0
  -12.0193    1.2266   -2.5852 C   0  0  0  1  0  0  0  0  0  0  0  0
  -12.6824   -0.0940   -2.9252 C   0  0  0  1  0  0  0  0  0  0  0  0
  -12.6798    2.1956   -2.2131 O   0  0  0  1  0  0  0  0  0  0  0  0
  -10.2769    4.1094   -5.6509 C   0  0  0  1  0  0  0  0  0  0  0  0
    2.3329    0.5635    0.5761 O   0  0  0  1  0  0  0  0  0  0  0  0
  -10.1960    4.7065   -2.9613 O   0  0  0  1  0  0  0  0  0  0  0  0
  -10.6838    1.2597   -2.7175 N   0  0  0  1  0  0  0  0  0  0  0  0
   -6.8290   -0.5205    2.0829 O   0  5  0  1  0  0  0  0  0  0  0  0
   -4.4768    1.0588   -0.1794 N   0  0  0  1  0  0  0  0  0  0  0  0
   -4.7964   -1.3335    2.7011 O   0  0  0  1  0  0  0  0  0  0  0  0
   -8.2494    1.2219   -0.8077 C   0  0  0  1  0  0  0  0  0  0  0  0
   -8.4648    2.0728   -2.0347 C   0  0  0  1  0  0  0  0  0  0  0  0
   -2.3269    0.7578    0.2976 C   0  0  0  1  0  0  0  0  0  0  0  0
   -6.8610    0.6383   -0.7208 C   0  0  0  1  0  0  0  0  0  0  0  0
   -2.9577   -0.4949    0.2929 C   0  0  0  1  0  0  0  0  0  0  0  0
    1.2545    2.4161    1.7289 C   0  0  0  1  0  0  0  0  0  0  0  0
   -9.9353    2.4263   -2.2781 C   0  0  0  1  0  0  0  0  0  0  0  0
   -5.7297    1.6498   -0.6508 C   0  0  0  1  0  0  0  0  0  0  0  0
   -2.2952   -1.8296    0.5658 C   0  0  0  1  0  0  0  0  0  0  0  0
  -10.0541    3.5455   -3.3083 C   0  0  0  1  0  0  0  0  0  0  0  0
    1.3371    0.8969    1.5229 C   0  0  0  1  0  0  0  0  0  0  0  0
    2.5055    3.0077    2.3558 C   0  0  0  1  0  0  0  0  0  0  0  0
   -0.9088    1.0632    0.4600 C   0  0  0  1  0  0  0  0  0  0  0  0
    2.4392    4.5161    2.5242 C   0  0  0  1  0  0  0  0  0  0  0  0
   -0.0109    0.3812    1.1301 C   0  0  0  1  0  0  0  0  0  0  0  0
   -3.2939    1.7092    0.0028 C   0  0  0  1  0  0  0  0  0  0  0  0
    2.3763    5.2070    1.1718 C   0  0  0  1  0  0  0  0  0  0  0  0
   -4.2915   -0.2945   -0.0051 C   0  0  0  1  0  0  0  0  0  0  0  0
   -3.0006   -2.9063   -0.1961 C   0  0  0  1  0  0  0  0  0  0  0  0
   -3.6720   -3.9217    0.3036 C   0  0  0  1  0  0  0  0  0  0  0  0
   -4.1309   -4.0301    1.7332 C   0  0  0  1  0  0  0  0  0  0  0  0
    1.9448    6.6562    1.3267 C   0  0  0  1  0  0  0  0  0  0  0  0
   -5.6462   -3.9483    1.8204 C   0  0  0  1  0  0  0  0  0  0  0  0
   -6.2121   -2.6487    1.2715 C   0  0  0  1  0  0  0  0  0  0  0  0
   -5.8458   -1.4600    2.0918 C   0  0  0  1  0  0  0  0  0  0  0  0
   -9.9467    2.1953   -4.7973 H   0  0  0  1  0  0  0  0  0  0  0  0
  -13.4703   -0.2880   -2.2277 H   0  0  0  1  0  0  0  0  0  0  0  0
  -11.9585   -0.8802   -2.8729 H   0  0  0  1  0  0  0  0  0  0  0  0
  -13.0864   -0.0456   -3.9148 H   0  0  0  1  0  0  0  0  0  0  0  0
  -11.3239    4.2055   -5.8495 H   0  0  0  1  0  0  0  0  0  0  0  0
   -9.7757    3.7747   -6.5350 H   0  0  0  1  0  0  0  0  0  0  0  0
   -9.8819    5.0584   -5.3539 H   0  0  0  1  0  0  0  0  0  0  0  0
    2.7486    1.3659    0.2522 H   0  0  0  1  0  0  0  0  0  0  0  0
  -10.2124    0.4960   -3.1111 H   0  0  0  1  0  0  0  0  0  0  0  0
   -8.9550    0.4177   -0.8244 H   0  0  0  1  0  0  0  0  0  0  0  0
   -8.4179    1.8270    0.0585 H   0  0  0  1  0  0  0  0  0  0  0  0
   -8.0988    1.5385   -2.8865 H   0  0  0  1  0  0  0  0  0  0  0  0
   -7.9121    2.9816   -1.9186 H   0  0  0  1  0  0  0  0  0  0  0  0
   -6.7050    0.0287   -1.5863 H   0  0  0  1  0  0  0  0  0  0  0  0
   -6.8137    0.0297    0.1580 H   0  0  0  1  0  0  0  0  0  0  0  0
    0.4226    2.6271    2.3679 H   0  0  0  1  0  0  0  0  0  0  0  0
    1.1003    2.8797    0.7770 H   0  0  0  1  0  0  0  0  0  0  0  0
  -10.3480    2.7783   -1.3559 H   0  0  0  1  0  0  0  0  0  0  0  0
   -5.5711    2.0550   -1.6283 H   0  0  0  1  0  0  0  0  0  0  0  0
   -6.0122    2.4344    0.0196 H   0  0  0  1  0  0  0  0  0  0  0  0
   -2.3448   -2.0439    1.6130 H   0  0  0  1  0  0  0  0  0  0  0  0
   -1.2713   -1.7882    0.2578 H   0  0  0  1  0  0  0  0  0  0  0  0
    1.5904    0.4579    2.4652 H   0  0  0  1  0  0  0  0  0  0  0  0
    3.3418    2.7726    1.7310 H   0  0  0  1  0  0  0  0  0  0  0  0
    2.6441    2.5645    3.3198 H   0  0  0  1  0  0  0  0  0  0  0  0
   -0.5695    1.9254   -0.0125 H   0  0  0  1  0  0  0  0  0  0  0  0
    3.3106    4.8492    3.0482 H   0  0  0  1  0  0  0  0  0  0  0  0
    1.5654    4.7680    3.0880 H   0  0  0  1  0  0  0  0  0  0  0  0
   -0.2544   -0.5906    1.4092 H   0  0  0  1  0  0  0  0  0  0  0  0
    1.6720    4.6958    0.5492 H   0  0  0  1  0  0  0  0  0  0  0  0
    3.3441    5.1758    0.7165 H   0  0  0  1  0  0  0  0  0  0  0  0
   -2.9555   -2.8459   -1.2334 H   0  0  0  1  0  0  0  0  0  0  0  0
   -3.9028   -4.7079   -0.3368 H   0  0  0  1  0  0  0  0  0  0  0  0
   -3.7032   -3.2300    2.3006 H   0  0  0  1  0  0  0  0  0  0  0  0
   -3.8064   -4.9668    2.1358 H   0  0  0  1  0  0  0  0  0  0  0  0
    1.6206    6.8268    2.3320 H   0  0  0  1  0  0  0  0  0  0  0  0
    1.1397    6.8624    0.6527 H   0  0  0  1  0  0  0  0  0  0  0  0
    2.7704    7.2995    1.1044 H   0  0  0  1  0  0  0  0  0  0  0  0
   -5.9321   -4.0356    2.8479 H   0  0  0  1  0  0  0  0  0  0  0  0
   -6.0625   -4.7616    1.2635 H   0  0  0  1  0  0  0  0  0  0  0  0
   -7.2789   -2.7271    1.2428 H   0  0  0  1  0  0  0  0  0  0  0  0
   -5.8376   -2.5064    0.2794 H   0  0  0  1  0  0  0  0  0  0  0  0
  1 34  1  0  0  0  0
  2  4  1  0  0  0  0
  3  4  1  0  0  0  0
  4  5  1  0  0  0  0
  4 32  1  0  0  0  0
  6 10  1  0  0  0  0
  6 26  1  0  0  0  0
  6 42  1  0  0  0  0
  7  8  1  0  0  0  0
  7  9  2  0  0  0  0
  7 13  1  0  0  0  0
  8 43  1  0  0  0  0
  8 44  1  0  0  0  0
  8 45  1  0  0  0  0
 10 46  1  0  0  0  0
 10 47  1  0  0  0  0
 10 48  1  0  0  0  0
 11 27  1  0  0  0  0
 11 49  1  0  0  0  0
 12 26  2  0  0  0  0
 13 23  1  0  0  0  0
 13 50  1  0  0  0  0
 14 41  1  0  0  0  0
 15 24  1  0  0  0  0
 15 32  4  0  0  0  0
 15 34  4  0  0  0  0
 16 41  2  0  0  0  0
 17 18  1  0  0  0  0
 17 20  1  0  0  0  0
 17 51  1  0  0  0  0
 17 52  1  0  0  0  0
 18 23  1  0  0  0  0
 18 53  1  0  0  0  0
 18 54  1  0  0  0  0
 19 21  4  0  0  0  0
 19 29  1  0  0  0  0
 19 32  4  0  0  0  0
 20 24  1  0  0  0  0
 20 55  1  0  0  0  0
 20 56  1  0  0  0  0
 21 25  1  0  0  0  0
 21 34  4  0  0  0  0
 22 27  1  0  0  0  0
 22 28  1  0  0  0  0
 22 57  1  0  0  0  0
 22 58  1  0  0  0  0
 23 26  1  0  0  0  0
 23 59  1  0  0  0  0
 24 60  1  0  0  0  0
 24 61  1  0  0  0  0
 25 35  1  0  0  0  0
 25 62  1  0  0  0  0
 25 63  1  0  0  0  0
 27 31  1  0  0  0  0
 27 64  1  0  0  0  0
 28 30  1  0  0  0  0
 28 65  1  0  0  0  0
 28 66  1  0  0  0  0
 29 31  2  0  0  0  0
 29 67  1  0  0  0  0
 30 33  1  0  0  0  0
 30 68  1  0  0  0  0
 30 69  1  0  0  0  0
 31 70  1  0  0  0  0
 33 38  1  0  0  0  0
 33 71  1  0  0  0  0
 33 72  1  0  0  0  0
 35 36  2  0  0  0  0
 35 73  1  0  0  0  0
 36 37  1  0  0  0  0
 36 74  1  0  0  0  0
 37 39  1  0  0  0  0
 37 75  1  0  0  0  0
 37 76  1  0  0  0  0
 38 77  1  0  0  0  0
 38 78  1  0  0  0  0
 38 79  1  0  0  0  0
 39 40  1  0  0  0  0
 39 80  1  0  0  0  0
 39 81  1  0  0  0  0
 40 41  1  0  0  0  0
 40 82  1  0  0  0  0
 40 83  1  0  0  0  0
M  END
> <ConfClashScore>
0 

> <ConfOneFourInteractionScore>
-0.986458 

> <ConfScore>
0.255779 

> <ConfScorePBest>
0.0025649 

> <ConfTolerance>
2.32471 

$$$$
9548876
  PyMOL2.2          3D                             0

 83 83  0  0  0  0  0  0  0  0999 V2000
   -4.9973   -1.0492   -0.1258 H   0  0  0  1  0  0  0  0  0  0  0  0
   -2.4644    3.5465    0.5633 H   0  0  0  1  0  0  0  0  0  0  0  0
   -4.1288    3.6345    0.0395 H   0  0  0  1  0  0  0  0  0  0  0  0
   -3.1761    3.1857   -0.1495 C   0  0  0  1  0  0  0  0  0  0  0  0
   -2.8514    3.4392   -1.1370 H   0  0  0  1  0  0  0  0  0  0  0  0
   -7.8536    5.8237   -5.6342 N   0  0  0  1  0  0  0  0  0  0  0  0
   -8.6205    1.8465   -6.2518 C   0  0  0  1  0  0  0  0  0  0  0  0
   -8.5606    0.4553   -6.8408 C   0  0  0  1  0  0  0  0  0  0  0  0
   -9.6031    2.5682   -6.4175 O   0  0  0  1  0  0  0  0  0  0  0  0
   -7.7138    7.0350   -6.4286 C   0  0  0  1  0  0  0  0  0  0  0  0
    1.7872    1.0243    1.2939 O   0  0  0  1  0  0  0  0  0  0  0  0
   -6.3836    4.5606   -6.7588 O   0  0  0  1  0  0  0  0  0  0  0  0
   -7.5431    2.2289   -5.5483 N   0  0  0  1  0  0  0  0  0  0  0  0
   -2.1272   -5.7154    0.4441 O   0  5  0  1  0  0  0  0  0  0  0  0
   -4.4689    1.0447   -0.2199 N   0  0  0  1  0  0  0  0  0  0  0  0
   -0.7355   -6.5004   -1.1750 O   0  0  0  1  0  0  0  0  0  0  0  0
   -6.6596    2.5982   -2.6600 C   0  0  0  1  0  0  0  0  0  0  0  0
   -6.3484    3.5013   -3.8436 C   0  0  0  1  0  0  0  0  0  0  0  0
   -2.3198    0.7619    0.2718 C   0  0  0  1  0  0  0  0  0  0  0  0
   -5.5608    2.6839   -1.6133 C   0  0  0  1  0  0  0  0  0  0  0  0
   -2.9402   -0.4960    0.2639 C   0  0  0  1  0  0  0  0  0  0  0  0
    1.2590    2.5023    3.0728 C   0  0  0  1  0  0  0  0  0  0  0  0
   -7.4609    3.5275   -4.8966 C   0  0  0  1  0  0  0  0  0  0  0  0
   -5.7551    1.7285   -0.4629 C   0  0  0  1  0  0  0  0  0  0  0  0
   -2.2705   -1.8211    0.5415 C   0  0  0  1  0  0  0  0  0  0  0  0
   -7.2073    4.6777   -5.8665 C   0  0  0  1  0  0  0  0  0  0  0  0
    0.8586    1.2080    2.3582 C   0  0  0  1  0  0  0  0  0  0  0  0
    2.6845    2.4818    3.4274 C   0  0  0  1  0  0  0  0  0  0  0  0
   -0.9350    1.0343    0.6394 C   0  0  0  1  0  0  0  0  0  0  0  0
    3.2998    3.6641    4.1509 C   0  0  0  1  0  0  0  0  0  0  0  0
   -0.5579    1.2394    1.8788 C   0  0  0  1  0  0  0  0  0  0  0  0
   -3.2926    1.7050   -0.0303 C   0  0  0  1  0  0  0  0  0  0  0  0
    4.8175    3.6181    4.1979 C   0  0  0  1  0  0  0  0  0  0  0  0
   -4.2736   -0.3069   -0.0432 C   0  0  0  1  0  0  0  0  0  0  0  0
   -2.1931   -2.6825   -0.6789 C   0  0  0  1  0  0  0  0  0  0  0  0
   -1.1150   -3.0112   -1.3456 C   0  0  0  1  0  0  0  0  0  0  0  0
    0.2932   -2.8489   -0.8391 C   0  0  0  1  0  0  0  0  0  0  0  0
    5.3606    2.4110    4.9436 C   0  0  0  1  0  0  0  0  0  0  0  0
    0.9495   -4.1719   -0.4667 C   0  0  0  1  0  0  0  0  0  0  0  0
    0.1221   -5.0041    0.4993 C   0  0  0  1  0  0  0  0  0  0  0  0
   -0.9236   -5.8194   -0.1803 C   0  0  0  1  0  0  0  0  0  0  0  0
   -8.4681    5.8507   -4.8712 H   0  0  0  1  0  0  0  0  0  0  0  0
   -8.5064   -0.2648   -6.0512 H   0  0  0  1  0  0  0  0  0  0  0  0
   -7.6941    0.3684   -7.4624 H   0  0  0  1  0  0  0  0  0  0  0  0
   -9.4389    0.2776   -7.4255 H   0  0  0  1  0  0  0  0  0  0  0  0
   -7.0874    6.8377   -7.2734 H   0  0  0  1  0  0  0  0  0  0  0  0
   -7.2731    7.8048   -5.8302 H   0  0  0  1  0  0  0  0  0  0  0  0
   -8.6780    7.3530   -6.7664 H   0  0  0  1  0  0  0  0  0  0  0  0
    2.6737    0.9415    1.6528 H   0  0  0  1  0  0  0  0  0  0  0  0
   -6.7855    1.6121   -5.4708 H   0  0  0  1  0  0  0  0  0  0  0  0
   -6.7405    1.5874   -3.0017 H   0  0  0  1  0  0  0  0  0  0  0  0
   -7.5868    2.9021   -2.2210 H   0  0  0  1  0  0  0  0  0  0  0  0
   -5.4494    3.1538   -4.3083 H   0  0  0  1  0  0  0  0  0  0  0  0
   -6.2010    4.4971   -3.4809 H   0  0  0  1  0  0  0  0  0  0  0  0
   -5.5382    3.6811   -1.2260 H   0  0  0  1  0  0  0  0  0  0  0  0
   -4.6258    2.4624   -2.0840 H   0  0  0  1  0  0  0  0  0  0  0  0
    0.6770    2.6051    3.9648 H   0  0  0  1  0  0  0  0  0  0  0  0
    1.0704    3.3333    2.4256 H   0  0  0  1  0  0  0  0  0  0  0  0
   -8.3849    3.7197   -4.3925 H   0  0  0  1  0  0  0  0  0  0  0  0
   -6.0509    2.2685    0.4122 H   0  0  0  1  0  0  0  0  0  0  0  0
   -6.5079    1.0096   -0.7105 H   0  0  0  1  0  0  0  0  0  0  0  0
   -2.8292   -2.3384    1.2932 H   0  0  0  1  0  0  0  0  0  0  0  0
   -1.2781   -1.6376    0.8969 H   0  0  0  1  0  0  0  0  0  0  0  0
    0.9559    0.4028    3.0561 H   0  0  0  1  0  0  0  0  0  0  0  0
    3.2288    2.3605    2.5142 H   0  0  0  1  0  0  0  0  0  0  0  0
    2.8361    1.6249    4.0501 H   0  0  0  1  0  0  0  0  0  0  0  0
   -0.2169    1.0671   -0.1121 H   0  0  0  1  0  0  0  0  0  0  0  0
    2.9295    3.6777    5.1548 H   0  0  0  1  0  0  0  0  0  0  0  0
    3.0030    4.5611    3.6487 H   0  0  0  1  0  0  0  0  0  0  0  0
   -1.2991    1.4389    2.5806 H   0  0  0  1  0  0  0  0  0  0  0  0
    5.1689    4.5038    4.6847 H   0  0  0  1  0  0  0  0  0  0  0  0
    5.1874    3.5914    3.1942 H   0  0  0  1  0  0  0  0  0  0  0  0
   -3.0930   -3.0616   -1.0366 H   0  0  0  1  0  0  0  0  0  0  0  0
   -1.2411   -3.4144   -2.2959 H   0  0  0  1  0  0  0  0  0  0  0  0
    0.2731   -2.2226    0.0282 H   0  0  0  1  0  0  0  0  0  0  0  0
    0.8784   -2.3817   -1.6035 H   0  0  0  1  0  0  0  0  0  0  0  0
    6.4246    2.3737    4.8361 H   0  0  0  1  0  0  0  0  0  0  0  0
    4.9301    1.5188    4.5391 H   0  0  0  1  0  0  0  0  0  0  0  0
    5.1098    2.4902    5.9807 H   0  0  0  1  0  0  0  0  0  0  0  0
    1.8957   -3.9650   -0.0118 H   0  0  0  1  0  0  0  0  0  0  0  0
    1.0996   -4.7397   -1.3610 H   0  0  0  1  0  0  0  0  0  0  0  0
   -0.3573   -4.3448    1.1925 H   0  0  0  1  0  0  0  0  0  0  0  0
    0.7777   -5.6636    1.0286 H   0  0  0  1  0  0  0  0  0  0  0  0
  1 34  1  0  0  0  0
  2  4  1  0  0  0  0
  3  4  1  0  0  0  0
  4  5  1  0  0  0  0
  4 32  1  0  0  0  0
  6 10  1  0  0  0  0
  6 26  1  0  0  0  0
  6 42  1  0  0  0  0
  7  8  1  0  0  0  0
  7  9  2  0  0  0  0
  7 13  1  0  0  0  0
  8 43  1  0  0  0  0
  8 44  1  0  0  0  0
  8 45  1  0  0  0  0
 10 46  1  0  0  0  0
 10 47  1  0  0  0  0
 10 48  1  0  0  0  0
 11 27  1  0  0  0  0
 11 49  1  0  0  0  0
 12 26  2  0  0  0  0
 13 23  1  0  0  0  0
 13 50  1  0  0  0  0
 14 41  1  0  0  0  0
 15 24  1  0  0  0  0
 15 32  4  0  0  0  0
 15 34  4  0  0  0  0
 16 41  2  0  0  0  0
 17 18  1  0  0  0  0
 17 20  1  0  0  0  0
 17 51  1  0  0  0  0
 17 52  1  0  0  0  0
 18 23  1  0  0  0  0
 18 53  1  0  0  0  0
 18 54  1  0  0  0  0
 19 21  4  0  0  0  0
 19 29  1  0  0  0  0
 19 32  4  0  0  0  0
 20 24  1  0  0  0  0
 20 55  1  0  0  0  0
 20 56  1  0  0  0  0
 21 25  1  0  0  0  0
 21 34  4  0  0  0  0
 22 27  1  0  0  0  0
 22 28  1  0  0  0  0
 22 57  1  0  0  0  0
 22 58  1  0  0  0  0
 23 26  1  0  0  0  0
 23 59  1  0  0  0  0
 24 60  1  0  0  0  0
 24 61  1  0  0  0  0
 25 35  1  0  0  0  0
 25 62  1  0  0  0  0
 25 63  1  0  0  0  0
 27 31  1  0  0  0  0
 27 64  1  0  0  0  0
 28 30  1  0  0  0  0
 28 65  1  0  0  0  0
 28 66  1  0  0  0  0
 29 31  2  0  0  0  0
 29 67  1  0  0  0  0
 30 33  1  0  0  0  0
 30 68  1  0  0  0  0
 30 69  1  0  0  0  0
 31 70  1  0  0  0  0
 33 38  1  0  0  0  0
 33 71  1  0  0  0  0
 33 72  1  0  0  0  0
 35 36  2  0  0  0  0
 35 73  1  0  0  0  0
 36 37  1  0  0  0  0
 36 74  1  0  0  0  0
 37 39  1  0  0  0  0
 37 75  1  0  0  0  0
 37 76  1  0  0  0  0
 38 77  1  0  0  0  0
 38 78  1  0  0  0  0
 38 79  1  0  0  0  0
 39 40  1  0  0  0  0
 39 80  1  0  0  0  0
 39 81  1  0  0  0  0
 40 41  1  0  0  0  0
 40 82  1  0  0  0  0
 40 83  1  0  0  0  0
M  END
> <ConfClashScore>
0 

> <ConfOneFourInteractionScore>
-0.991046 

> <ConfScore>
0.260314 

> <ConfScorePBest>
0.00253641 

> <ConfTolerance>
2.52974 

$$$$
9548876
  PyMOL2.2          3D                             0

 83 83  0  0  0  0  0  0  0  0999 V2000
   -5.0128   -1.0320   -0.1075 H   0  0  0  1  0  0  0  0  0  0  0  0
   -3.8881    3.5550   -0.8301 H   0  0  0  1  0  0  0  0  0  0  0  0
   -2.1795    3.4353   -0.4855 H   0  0  0  1  0  0  0  0  0  0  0  0
   -3.1605    3.1893   -0.1361 C   0  0  0  1  0  0  0  0  0  0  0  0
   -3.3223    3.6402    0.8207 H   0  0  0  1  0  0  0  0  0  0  0  0
   -5.6738    7.3819   -0.0419 N   0  0  0  1  0  0  0  0  0  0  0  0
   -4.9247    5.7658    2.7545 C   0  0  0  1  0  0  0  0  0  0  0  0
   -3.6830    5.9587    3.6031 C   0  0  0  1  0  0  0  0  0  0  0  0
   -6.0382    5.9832    3.2031 O   0  0  0  1  0  0  0  0  0  0  0  0
   -6.0955    8.6248   -0.6708 C   0  0  0  1  0  0  0  0  0  0  0  0
    1.0103    2.9734    2.5206 O   0  0  0  1  0  0  0  0  0  0  0  0
   -7.5802    6.2582   -0.4773 O   0  0  0  1  0  0  0  0  0  0  0  0
   -4.7125    5.3462    1.4978 N   0  0  0  1  0  0  0  0  0  0  0  0
   -3.5955   -7.5400    1.2784 O   0  5  0  1  0  0  0  0  0  0  0  0
   -4.4691    1.0579   -0.2038 N   0  0  0  1  0  0  0  0  0  0  0  0
   -2.5054   -6.7792    3.1045 O   0  0  0  1  0  0  0  0  0  0  0  0
   -6.3402    2.8359    1.6404 C   0  0  0  1  0  0  0  0  0  0  0  0
   -6.8696    4.2224    1.3075 C   0  0  0  1  0  0  0  0  0  0  0  0
   -2.3219    0.7597    0.2870 C   0  0  0  1  0  0  0  0  0  0  0  0
   -6.7155    1.7912    0.6188 C   0  0  0  1  0  0  0  0  0  0  0  0
   -2.9514   -0.4936    0.2806 C   0  0  0  1  0  0  0  0  0  0  0  0
    1.9078    1.0913    1.2630 C   0  0  0  1  0  0  0  0  0  0  0  0
   -5.8042    5.0507    0.5821 C   0  0  0  1  0  0  0  0  0  0  0  0
   -5.7643    1.6480   -0.5433 C   0  0  0  1  0  0  0  0  0  0  0  0
   -2.2914   -1.8233    0.5591 C   0  0  0  1  0  0  0  0  0  0  0  0
   -6.4544    6.2981   -0.0090 C   0  0  0  1  0  0  0  0  0  0  0  0
    1.0979    2.3612    1.2534 C   0  0  0  1  0  0  0  0  0  0  0  0
    1.9683    0.4054   -0.0913 C   0  0  0  1  0  0  0  0  0  0  0  0
   -0.9412    1.0561    0.5508 C   0  0  0  1  0  0  0  0  0  0  0  0
    2.7401   -0.8877   -0.0017 C   0  0  0  1  0  0  0  0  0  0  0  0
   -0.2679    2.1515    0.6930 C   0  0  0  1  0  0  0  0  0  0  0  0
   -3.2878    1.7097   -0.0154 C   0  0  0  1  0  0  0  0  0  0  0  0
    2.9049   -1.6369   -1.3007 C   0  0  0  1  0  0  0  0  0  0  0  0
   -4.2836   -0.2949   -0.0259 C   0  0  0  1  0  0  0  0  0  0  0  0
   -1.4858   -2.3666   -0.5751 C   0  0  0  1  0  0  0  0  0  0  0  0
   -1.7644   -3.4956   -1.1773 C   0  0  0  1  0  0  0  0  0  0  0  0
   -3.0479   -4.2773   -1.0904 C   0  0  0  1  0  0  0  0  0  0  0  0
    3.7792   -2.8785   -1.2336 C   0  0  0  1  0  0  0  0  0  0  0  0
   -2.9184   -5.5443   -0.2608 C   0  0  0  1  0  0  0  0  0  0  0  0
   -2.9278   -5.2872    1.2372 C   0  0  0  1  0  0  0  0  0  0  0  0
   -2.9639   -6.5706    1.9933 C   0  0  0  1  0  0  0  0  0  0  0  0
   -4.7865    7.3385    0.3718 H   0  0  0  1  0  0  0  0  0  0  0  0
   -3.9595    6.3652    4.5535 H   0  0  0  1  0  0  0  0  0  0  0  0
   -3.0143    6.6317    3.1085 H   0  0  0  1  0  0  0  0  0  0  0  0
   -3.1991    5.0152    3.7463 H   0  0  0  1  0  0  0  0  0  0  0  0
   -5.8975    8.5786   -1.7213 H   0  0  0  1  0  0  0  0  0  0  0  0
   -5.5550    9.4425   -0.2418 H   0  0  0  1  0  0  0  0  0  0  0  0
   -7.1440    8.7669   -0.5116 H   0  0  0  1  0  0  0  0  0  0  0  0
    1.8922    3.0916    2.8810 H   0  0  0  1  0  0  0  0  0  0  0  0
   -3.7902    5.2350    1.1858 H   0  0  0  1  0  0  0  0  0  0  0  0
   -6.7365    2.5403    2.5893 H   0  0  0  1  0  0  0  0  0  0  0  0
   -5.2729    2.8853    1.6987 H   0  0  0  1  0  0  0  0  0  0  0  0
   -7.1440    4.7202    2.2140 H   0  0  0  1  0  0  0  0  0  0  0  0
   -7.7294    4.1277    0.6776 H   0  0  0  1  0  0  0  0  0  0  0  0
   -7.6786    2.0443    0.2272 H   0  0  0  1  0  0  0  0  0  0  0  0
   -6.7701    0.8465    1.1183 H   0  0  0  1  0  0  0  0  0  0  0  0
    1.4695    0.4147    1.9666 H   0  0  0  1  0  0  0  0  0  0  0  0
    2.9056    1.3276    1.5685 H   0  0  0  1  0  0  0  0  0  0  0  0
   -5.4260    4.4618   -0.2272 H   0  0  0  1  0  0  0  0  0  0  0  0
   -6.2299    1.0280   -1.2807 H   0  0  0  1  0  0  0  0  0  0  0  0
   -5.5900    2.6210   -0.9531 H   0  0  0  1  0  0  0  0  0  0  0  0
   -3.0568   -2.5329    0.7948 H   0  0  0  1  0  0  0  0  0  0  0  0
   -1.6431   -1.7041    1.4019 H   0  0  0  1  0  0  0  0  0  0  0  0
    1.5982    3.0399    0.5947 H   0  0  0  1  0  0  0  0  0  0  0  0
    2.4510    1.0543   -0.7919 H   0  0  0  1  0  0  0  0  0  0  0  0
    0.9729    0.1976   -0.4241 H   0  0  0  1  0  0  0  0  0  0  0  0
   -0.3543    0.2031    0.6489 H   0  0  0  1  0  0  0  0  0  0  0  0
    2.2299   -1.5290    0.6862 H   0  0  0  1  0  0  0  0  0  0  0  0
    3.7160   -0.6636    0.3755 H   0  0  0  1  0  0  0  0  0  0  0  0
   -0.7506    3.0135    0.3683 H   0  0  0  1  0  0  0  0  0  0  0  0
    3.3374   -0.9675   -2.0147 H   0  0  0  1  0  0  0  0  0  0  0  0
    1.9331   -1.9358   -1.6343 H   0  0  0  1  0  0  0  0  0  0  0  0
   -0.6630   -1.8214   -0.9028 H   0  0  0  1  0  0  0  0  0  0  0  0
   -1.0179   -3.8955   -1.7810 H   0  0  0  1  0  0  0  0  0  0  0  0
   -3.3495   -4.5479   -2.0807 H   0  0  0  1  0  0  0  0  0  0  0  0
   -3.7965   -3.6546   -0.6467 H   0  0  0  1  0  0  0  0  0  0  0  0
    4.1054   -3.0316   -0.2261 H   0  0  0  1  0  0  0  0  0  0  0  0
    4.6310   -2.7493   -1.8682 H   0  0  0  1  0  0  0  0  0  0  0  0
    3.2168   -3.7285   -1.5593 H   0  0  0  1  0  0  0  0  0  0  0  0
   -1.9973   -6.0248   -0.5168 H   0  0  0  1  0  0  0  0  0  0  0  0
   -3.7369   -6.1910   -0.4992 H   0  0  0  1  0  0  0  0  0  0  0  0
   -3.7915   -4.7077    1.4884 H   0  0  0  1  0  0  0  0  0  0  0  0
   -2.0444   -4.7465    1.5059 H   0  0  0  1  0  0  0  0  0  0  0  0
  1 34  1  0  0  0  0
  2  4  1  0  0  0  0
  3  4  1  0  0  0  0
  4  5  1  0  0  0  0
  4 32  1  0  0  0  0
  6 10  1  0  0  0  0
  6 26  1  0  0  0  0
  6 42  1  0  0  0  0
  7  8  1  0  0  0  0
  7  9  2  0  0  0  0
  7 13  1  0  0  0  0
  8 43  1  0  0  0  0
  8 44  1  0  0  0  0
  8 45  1  0  0  0  0
 10 46  1  0  0  0  0
 10 47  1  0  0  0  0
 10 48  1  0  0  0  0
 11 27  1  0  0  0  0
 11 49  1  0  0  0  0
 12 26  2  0  0  0  0
 13 23  1  0  0  0  0
 13 50  1  0  0  0  0
 14 41  1  0  0  0  0
 15 24  1  0  0  0  0
 15 32  4  0  0  0  0
 15 34  4  0  0  0  0
 16 41  2  0  0  0  0
 17 18  1  0  0  0  0
 17 20  1  0  0  0  0
 17 51  1  0  0  0  0
 17 52  1  0  0  0  0
 18 23  1  0  0  0  0
 18 53  1  0  0  0  0
 18 54  1  0  0  0  0
 19 21  4  0  0  0  0
 19 29  1  0  0  0  0
 19 32  4  0  0  0  0
 20 24  1  0  0  0  0
 20 55  1  0  0  0  0
 20 56  1  0  0  0  0
 21 25  1  0  0  0  0
 21 34  4  0  0  0  0
 22 27  1  0  0  0  0
 22 28  1  0  0  0  0
 22 57  1  0  0  0  0
 22 58  1  0  0  0  0
 23 26  1  0  0  0  0
 23 59  1  0  0  0  0
 24 60  1  0  0  0  0
 24 61  1  0  0  0  0
 25 35  1  0  0  0  0
 25 62  1  0  0  0  0
 25 63  1  0  0  0  0
 27 31  1  0  0  0  0
 27 64  1  0  0  0  0
 28 30  1  0  0  0  0
 28 65  1  0  0  0  0
 28 66  1  0  0  0  0
 29 31  2  0  0  0  0
 29 67  1  0  0  0  0
 30 33  1  0  0  0  0
 30 68  1  0  0  0  0
 30 69  1  0  0  0  0
 31 70  1  0  0  0  0
 33 38  1  0  0  0  0
 33 71  1  0  0  0  0
 33 72  1  0  0  0  0
 35 36  2  0  0  0  0
 35 73  1  0  0  0  0
 36 37  1  0  0  0  0
 36 74  1  0  0  0  0
 37 39  1  0  0  0  0
 37 75  1  0  0  0  0
 37 76  1  0  0  0  0
 38 77  1  0  0  0  0
 38 78  1  0  0  0  0
 38 79  1  0  0  0  0
 39 40  1  0  0  0  0
 39 80  1  0  0  0  0
 39 81  1  0  0  0  0
 40 41  1  0  0  0  0
 40 82  1  0  0  0  0
 40 83  1  0  0  0  0
M  END
> <ConfClashScore>
0.000621545 

> <ConfOneFourInteractionScore>
-0.986376 

> <ConfScore>
0.260791 

> <ConfScorePBest>
0.00250793 

> <ConfTolerance>
2.47752 

$$$$
9548876
  PyMOL2.2          3D                             0

 83 83  0  0  0  0  0  0  0  0999 V2000
   -5.0117   -1.0415   -0.0980 H   0  0  0  1  0  0  0  0  0  0  0  0
   -3.3252    3.6288    0.8401 H   0  0  0  1  0  0  0  0  0  0  0  0
   -3.9125    3.5545   -0.8037 H   0  0  0  1  0  0  0  0  0  0  0  0
   -3.1742    3.1863   -0.1223 C   0  0  0  1  0  0  0  0  0  0  0  0
   -2.1987    3.4391   -0.4818 H   0  0  0  1  0  0  0  0  0  0  0  0
  -11.4744    1.4191    0.9175 N   0  0  0  1  0  0  0  0  0  0  0  0
   -8.0292    1.4737    4.0040 C   0  0  0  1  0  0  0  0  0  0  0  0
   -7.0574    0.5074    4.6819 C   0  0  0  1  0  0  0  0  0  0  0  0
   -8.4901    2.4295    4.6266 O   0  0  0  1  0  0  0  0  0  0  0  0
  -12.3253    0.8387   -0.1105 C   0  0  0  1  0  0  0  0  0  0  0  0
    2.3119   -0.6284    0.4286 O   0  0  0  1  0  0  0  0  0  0  0  0
   -9.5891    0.3697    0.2611 O   0  0  0  1  0  0  0  0  0  0  0  0
   -8.4143    1.1764    2.7528 N   0  0  0  1  0  0  0  0  0  0  0  0
   -4.5566   -8.2481    1.3112 O   0  5  0  1  0  0  0  0  0  0  0  0
   -4.4768    1.0511   -0.1851 N   0  0  0  1  0  0  0  0  0  0  0  0
   -2.8032   -8.3933    2.7530 O   0  0  0  1  0  0  0  0  0  0  0  0
   -7.8500    2.8343    0.2090 C   0  0  0  1  0  0  0  0  0  0  0  0
   -8.7343    3.1855    1.3956 C   0  0  0  1  0  0  0  0  0  0  0  0
   -2.3197    0.7558    0.2622 C   0  0  0  1  0  0  0  0  0  0  0  0
   -6.6295    2.0120    0.5894 C   0  0  0  1  0  0  0  0  0  0  0  0
   -2.9452   -0.4996    0.2561 C   0  0  0  1  0  0  0  0  0  0  0  0
    2.0404    1.6792   -0.2856 C   0  0  0  1  0  0  0  0  0  0  0  0
   -9.4028    1.9674    2.0351 C   0  0  0  1  0  0  0  0  0  0  0  0
   -5.7317    1.6840   -0.5923 C   0  0  0  1  0  0  0  0  0  0  0  0
   -2.2854   -1.8125    0.6058 C   0  0  0  1  0  0  0  0  0  0  0  0
  -10.1682    1.1502    0.9985 C   0  0  0  1  0  0  0  0  0  0  0  0
    1.5190    0.5411    0.6080 C   0  0  0  1  0  0  0  0  0  0  0  0
    1.4804    3.0313    0.0803 C   0  0  0  1  0  0  0  0  0  0  0  0
   -0.9147    1.0589    0.5061 C   0  0  0  1  0  0  0  0  0  0  0  0
    1.8826    4.1744   -0.8340 C   0  0  0  1  0  0  0  0  0  0  0  0
    0.0942    0.2611    0.2491 C   0  0  0  1  0  0  0  0  0  0  0  0
   -3.2944    1.7052   -0.0130 C   0  0  0  1  0  0  0  0  0  0  0  0
    1.5388    5.5414   -0.2745 C   0  0  0  1  0  0  0  0  0  0  0  0
   -4.2835   -0.3027   -0.0234 C   0  0  0  1  0  0  0  0  0  0  0  0
   -2.7530   -2.9792   -0.2050 C   0  0  0  1  0  0  0  0  0  0  0  0
   -3.7079   -3.8024    0.1490 C   0  0  0  1  0  0  0  0  0  0  0  0
   -4.3092   -3.9583    1.5201 C   0  0  0  1  0  0  0  0  0  0  0  0
    1.1921    6.5616   -1.3466 C   0  0  0  1  0  0  0  0  0  0  0  0
   -4.5331   -5.4130    1.9116 C   0  0  0  1  0  0  0  0  0  0  0  0
   -3.3061   -6.2870    1.7098 C   0  0  0  1  0  0  0  0  0  0  0  0
   -3.4999   -7.7361    1.9973 C   0  0  0  1  0  0  0  0  0  0  0  0
  -11.8733    2.0285    1.5732 H   0  0  0  1  0  0  0  0  0  0  0  0
   -6.5476    1.0120    5.4759 H   0  0  0  1  0  0  0  0  0  0  0  0
   -6.3437    0.1583    3.9652 H   0  0  0  1  0  0  0  0  0  0  0  0
   -7.6007   -0.3244    5.0791 H   0  0  0  1  0  0  0  0  0  0  0  0
  -12.0906    1.2772   -1.0579 H   0  0  0  1  0  0  0  0  0  0  0  0
  -13.3511    1.0295    0.1263 H   0  0  0  1  0  0  0  0  0  0  0  0
  -12.1597   -0.2175   -0.1558 H   0  0  0  1  0  0  0  0  0  0  0  0
    2.3451   -0.8531   -0.5041 H   0  0  0  1  0  0  0  0  0  0  0  0
   -8.0159    0.3998    2.3072 H   0  0  0  1  0  0  0  0  0  0  0  0
   -7.5178    3.7433   -0.2473 H   0  0  0  1  0  0  0  0  0  0  0  0
   -8.4312    2.2738   -0.4932 H   0  0  0  1  0  0  0  0  0  0  0  0
   -9.4986    3.8560    1.0624 H   0  0  0  1  0  0  0  0  0  0  0  0
   -8.1322    3.6697    2.1358 H   0  0  0  1  0  0  0  0  0  0  0  0
   -6.9620    1.0944    1.0279 H   0  0  0  1  0  0  0  0  0  0  0  0
   -6.0585    2.5642    1.3064 H   0  0  0  1  0  0  0  0  0  0  0  0
    1.7732    1.4643   -1.2992 H   0  0  0  1  0  0  0  0  0  0  0  0
    3.1061    1.7183   -0.1978 H   0  0  0  1  0  0  0  0  0  0  0  0
  -10.1168    2.3323    2.7435 H   0  0  0  1  0  0  0  0  0  0  0  0
   -6.2551    1.0182   -1.2462 H   0  0  0  1  0  0  0  0  0  0  0  0
   -5.5050    2.5910   -1.1129 H   0  0  0  1  0  0  0  0  0  0  0  0
   -2.4836   -2.0215    1.6364 H   0  0  0  1  0  0  0  0  0  0  0  0
   -1.2309   -1.7055    0.4595 H   0  0  0  1  0  0  0  0  0  0  0  0
    1.5611    0.8618    1.6279 H   0  0  0  1  0  0  0  0  0  0  0  0
    1.8118    3.2685    1.0697 H   0  0  0  1  0  0  0  0  0  0  0  0
    0.4128    2.9600    0.0687 H   0  0  0  1  0  0  0  0  0  0  0  0
   -0.6934    1.9873    0.9193 H   0  0  0  1  0  0  0  0  0  0  0  0
    1.3777    4.0541   -1.7697 H   0  0  0  1  0  0  0  0  0  0  0  0
    2.9401    4.1279   -0.9902 H   0  0  0  1  0  0  0  0  0  0  0  0
   -0.1119   -0.6329   -0.2408 H   0  0  0  1  0  0  0  0  0  0  0  0
    2.3804    5.9031    0.2785 H   0  0  0  1  0  0  0  0  0  0  0  0
    0.6987    5.4385    0.3803 H   0  0  0  1  0  0  0  0  0  0  0  0
   -2.2849   -3.1492   -1.1180 H   0  0  0  1  0  0  0  0  0  0  0  0
   -4.0924   -4.4151   -0.5983 H   0  0  0  1  0  0  0  0  0  0  0  0
   -5.2516   -3.4518    1.5383 H   0  0  0  1  0  0  0  0  0  0  0  0
   -3.6495   -3.5111    2.2341 H   0  0  0  1  0  0  0  0  0  0  0  0
    0.2393    6.3234   -1.7715 H   0  0  0  1  0  0  0  0  0  0  0  0
    1.9389    6.5415   -2.1125 H   0  0  0  1  0  0  0  0  0  0  0  0
    1.1538    7.5379   -0.9105 H   0  0  0  1  0  0  0  0  0  0  0  0
   -5.3309   -5.8056    1.3163 H   0  0  0  1  0  0  0  0  0  0  0  0
   -4.8081   -5.4478    2.9451 H   0  0  0  1  0  0  0  0  0  0  0  0
   -2.5324   -5.9234    2.3533 H   0  0  0  1  0  0  0  0  0  0  0  0
   -2.9968   -6.1914    0.6899 H   0  0  0  1  0  0  0  0  0  0  0  0
  1 34  1  0  0  0  0
  2  4  1  0  0  0  0
  3  4  1  0  0  0  0
  4  5  1  0  0  0  0
  4 32  1  0  0  0  0
  6 10  1  0  0  0  0
  6 26  1  0  0  0  0
  6 42  1  0  0  0  0
  7  8  1  0  0  0  0
  7  9  2  0  0  0  0
  7 13  1  0  0  0  0
  8 43  1  0  0  0  0
  8 44  1  0  0  0  0
  8 45  1  0  0  0  0
 10 46  1  0  0  0  0
 10 47  1  0  0  0  0
 10 48  1  0  0  0  0
 11 27  1  0  0  0  0
 11 49  1  0  0  0  0
 12 26  2  0  0  0  0
 13 23  1  0  0  0  0
 13 50  1  0  0  0  0
 14 41  1  0  0  0  0
 15 24  1  0  0  0  0
 15 32  4  0  0  0  0
 15 34  4  0  0  0  0
 16 41  2  0  0  0  0
 17 18  1  0  0  0  0
 17 20  1  0  0  0  0
 17 51  1  0  0  0  0
 17 52  1  0  0  0  0
 18 23  1  0  0  0  0
 18 53  1  0  0  0  0
 18 54  1  0  0  0  0
 19 21  4  0  0  0  0
 19 29  1  0  0  0  0
 19 32  4  0  0  0  0
 20 24  1  0  0  0  0
 20 55  1  0  0  0  0
 20 56  1  0  0  0  0
 21 25  1  0  0  0  0
 21 34  4  0  0  0  0
 22 27  1  0  0  0  0
 22 28  1  0  0  0  0
 22 57  1  0  0  0  0
 22 58  1  0  0  0  0
 23 26  1  0  0  0  0
 23 59  1  0  0  0  0
 24 60  1  0  0  0  0
 24 61  1  0  0  0  0
 25 35  1  0  0  0  0
 25 62  1  0  0  0  0
 25 63  1  0  0  0  0
 27 31  1  0  0  0  0
 27 64  1  0  0  0  0
 28 30  1  0  0  0  0
 28 65  1  0  0  0  0
 28 66  1  0  0  0  0
 29 31  2  0  0  0  0
 29 67  1  0  0  0  0
 30 33  1  0  0  0  0
 30 68  1  0  0  0  0
 30 69  1  0  0  0  0
 31 70  1  0  0  0  0
 33 38  1  0  0  0  0
 33 71  1  0  0  0  0
 33 72  1  0  0  0  0
 35 36  2  0  0  0  0
 35 73  1  0  0  0  0
 36 37  1  0  0  0  0
 36 74  1  0  0  0  0
 37 39  1  0  0  0  0
 37 75  1  0  0  0  0
 37 76  1  0  0  0  0
 38 77  1  0  0  0  0
 38 78  1  0  0  0  0
 38 79  1  0  0  0  0
 39 40  1  0  0  0  0
 39 80  1  0  0  0  0
 39 81  1  0  0  0  0
 40 41  1  0  0  0  0
 40 82  1  0  0  0  0
 40 83  1  0  0  0  0
M  END
> <ConfClashScore>
0 

> <ConfOneFourInteractionScore>
-0.992157 

> <ConfScore>
0.267783 

> <ConfScorePBest>
0.00247945 

> <ConfTolerance>
2.82263 

$$$$
9548876
  PyMOL2.2          3D                             0

 83 83  0  0  0  0  0  0  0  0999 V2000
   -4.9981   -1.0418   -0.0858 H   0  0  0  1  0  0  0  0  0  0  0  0
   -2.1825    3.4959    0.1191 H   0  0  0  1  0  0  0  0  0  0  0  0
   -3.8683    3.6594    0.5477 H   0  0  0  1  0  0  0  0  0  0  0  0
   -3.1793    3.1940   -0.1258 C   0  0  0  1  0  0  0  0  0  0  0  0
   -3.4052    3.4901   -1.1289 H   0  0  0  1  0  0  0  0  0  0  0  0
  -10.3356    3.9851   -1.2145 N   0  0  0  1  0  0  0  0  0  0  0  0
  -11.1807    4.9166    1.6978 C   0  0  0  1  0  0  0  0  0  0  0  0
  -11.9141    4.0129    2.6826 C   0  0  0  1  0  0  0  0  0  0  0  0
  -11.6852    5.9639    1.2948 O   0  0  0  1  0  0  0  0  0  0  0  0
  -10.9268    3.7332   -2.5202 C   0  0  0  1  0  0  0  0  0  0  0  0
    1.3848    1.8562    3.0665 O   0  0  0  1  0  0  0  0  0  0  0  0
   -9.5159    6.0037   -1.8288 O   0  0  0  1  0  0  0  0  0  0  0  0
   -9.9672    4.4934    1.3102 N   0  0  0  1  0  0  0  0  0  0  0  0
    1.4694   -2.9622   -4.4590 O   0  5  0  1  0  0  0  0  0  0  0  0
   -4.4720    1.0526   -0.1829 N   0  0  0  1  0  0  0  0  0  0  0  0
   -0.3677   -2.3668   -5.6891 O   0  0  0  1  0  0  0  0  0  0  0  0
   -7.4113    3.4720   -0.1566 C   0  0  0  1  0  0  0  0  0  0  0  0
   -7.6537    4.8191    0.4965 C   0  0  0  1  0  0  0  0  0  0  0  0
   -2.3164    0.7698    0.2792 C   0  0  0  1  0  0  0  0  0  0  0  0
   -6.0016    2.9806    0.1291 C   0  0  0  1  0  0  0  0  0  0  0  0
   -2.9362   -0.4883    0.2773 C   0  0  0  1  0  0  0  0  0  0  0  0
    1.9781    1.1936    0.8994 C   0  0  0  1  0  0  0  0  0  0  0  0
   -9.1172    5.2755    0.4248 C   0  0  0  1  0  0  0  0  0  0  0  0
   -5.7272    1.6773   -0.6017 C   0  0  0  1  0  0  0  0  0  0  0  0
   -2.3170   -1.8417    0.5349 C   0  0  0  1  0  0  0  0  0  0  0  0
   -9.6531    5.1122   -0.9933 C   0  0  0  1  0  0  0  0  0  0  0  0
    1.0222    2.0826    1.7088 C   0  0  0  1  0  0  0  0  0  0  0  0
    1.7450   -0.2931    1.1136 C   0  0  0  1  0  0  0  0  0  0  0  0
   -0.9045    1.0263    0.5369 C   0  0  0  1  0  0  0  0  0  0  0  0
    2.6338   -1.1152    0.1959 C   0  0  0  1  0  0  0  0  0  0  0  0
   -0.4300    1.8115    1.4743 C   0  0  0  1  0  0  0  0  0  0  0  0
   -3.2936    1.7131   -0.0079 C   0  0  0  1  0  0  0  0  0  0  0  0
    2.3335   -2.6037    0.2416 C   0  0  0  1  0  0  0  0  0  0  0  0
   -4.2737   -0.2993   -0.0115 C   0  0  0  1  0  0  0  0  0  0  0  0
   -2.9290   -2.9639   -0.2420 C   0  0  0  1  0  0  0  0  0  0  0  0
   -2.2761   -3.7465   -1.0744 C   0  0  0  1  0  0  0  0  0  0  0  0
   -0.7739   -3.8327   -1.1193 C   0  0  0  1  0  0  0  0  0  0  0  0
    3.1796   -3.4190   -0.7227 C   0  0  0  1  0  0  0  0  0  0  0  0
   -0.1617   -2.9984   -2.2368 C   0  0  0  1  0  0  0  0  0  0  0  0
   -0.6862   -3.4467   -3.5947 C   0  0  0  1  0  0  0  0  0  0  0  0
    0.1335   -2.8666   -4.6954 C   0  0  0  1  0  0  0  0  0  0  0  0
  -10.4382    3.3266   -0.4960 H   0  0  0  1  0  0  0  0  0  0  0  0
  -12.8273    4.4811    2.9853 H   0  0  0  1  0  0  0  0  0  0  0  0
  -11.2973    3.8466    3.5410 H   0  0  0  1  0  0  0  0  0  0  0  0
  -12.1322    3.0766    2.2128 H   0  0  0  1  0  0  0  0  0  0  0  0
  -11.8128    4.3229   -2.6309 H   0  0  0  1  0  0  0  0  0  0  0  0
  -11.1762    2.6961   -2.6044 H   0  0  0  1  0  0  0  0  0  0  0  0
  -10.2262    3.9954   -3.2853 H   0  0  0  1  0  0  0  0  0  0  0  0
    0.9420    1.0679    3.3893 H   0  0  0  1  0  0  0  0  0  0  0  0
   -9.6423    3.6277    1.6347 H   0  0  0  1  0  0  0  0  0  0  0  0
   -7.5423    3.5663   -1.2144 H   0  0  0  1  0  0  0  0  0  0  0  0
   -8.1146    2.7636    0.2287 H   0  0  0  1  0  0  0  0  0  0  0  0
   -7.0461    5.5492    0.0039 H   0  0  0  1  0  0  0  0  0  0  0  0
   -7.3689    4.7532    1.5258 H   0  0  0  1  0  0  0  0  0  0  0  0
   -5.8917    2.8225    1.1817 H   0  0  0  1  0  0  0  0  0  0  0  0
   -5.2997    3.7198   -0.1962 H   0  0  0  1  0  0  0  0  0  0  0  0
    2.9822    1.4246    1.1878 H   0  0  0  1  0  0  0  0  0  0  0  0
    1.8458    1.4114   -0.1398 H   0  0  0  1  0  0  0  0  0  0  0  0
   -9.1675    6.3094    0.6957 H   0  0  0  1  0  0  0  0  0  0  0  0
   -6.5304    0.9983   -0.4051 H   0  0  0  1  0  0  0  0  0  0  0  0
   -5.6771    1.8770   -1.6517 H   0  0  0  1  0  0  0  0  0  0  0  0
   -2.4193   -2.0626    1.5769 H   0  0  0  1  0  0  0  0  0  0  0  0
   -1.2789   -1.7876    0.2814 H   0  0  0  1  0  0  0  0  0  0  0  0
    1.2208    3.1020    1.4515 H   0  0  0  1  0  0  0  0  0  0  0  0
    0.7203   -0.5210    0.9063 H   0  0  0  1  0  0  0  0  0  0  0  0
    1.9671   -0.5401    2.1308 H   0  0  0  1  0  0  0  0  0  0  0  0
   -0.2145    0.5455   -0.0749 H   0  0  0  1  0  0  0  0  0  0  0  0
    3.6525   -0.9656    0.4869 H   0  0  0  1  0  0  0  0  0  0  0  0
    2.4949   -0.7717   -0.8079 H   0  0  0  1  0  0  0  0  0  0  0  0
   -1.1145    2.2806    2.1012 H   0  0  0  1  0  0  0  0  0  0  0  0
    1.3025   -2.7495   -0.0051 H   0  0  0  1  0  0  0  0  0  0  0  0
    2.5164   -2.9564    1.2351 H   0  0  0  1  0  0  0  0  0  0  0  0
   -3.9463   -3.1386   -0.1149 H   0  0  0  1  0  0  0  0  0  0  0  0
   -2.8250   -4.3345   -1.7336 H   0  0  0  1  0  0  0  0  0  0  0  0
   -0.4957   -4.8554   -1.2662 H   0  0  0  1  0  0  0  0  0  0  0  0
   -0.3849   -3.4874   -0.1843 H   0  0  0  1  0  0  0  0  0  0  0  0
    4.0886   -3.7120   -0.2402 H   0  0  0  1  0  0  0  0  0  0  0  0
    3.4082   -2.8271   -1.5843 H   0  0  0  1  0  0  0  0  0  0  0  0
    2.6377   -4.2916   -1.0223 H   0  0  0  1  0  0  0  0  0  0  0  0
    0.9021   -3.1118   -2.2168 H   0  0  0  1  0  0  0  0  0  0  0  0
   -0.4142   -1.9697   -2.0854 H   0  0  0  1  0  0  0  0  0  0  0  0
   -1.6999   -3.1222   -3.7037 H   0  0  0  1  0  0  0  0  0  0  0  0
   -0.6448   -4.5144   -3.6516 H   0  0  0  1  0  0  0  0  0  0  0  0
  1 34  1  0  0  0  0
  2  4  1  0  0  0  0
  3  4  1  0  0  0  0
  4  5  1  0  0  0  0
  4 32  1  0  0  0  0
  6 10  1  0  0  0  0
  6 26  1  0  0  0  0
  6 42  1  0  0  0  0
  7  8  1  0  0  0  0
  7  9  2  0  0  0  0
  7 13  1  0  0  0  0
  8 43  1  0  0  0  0
  8 44  1  0  0  0  0
  8 45  1  0  0  0  0
 10 46  1  0  0  0  0
 10 47  1  0  0  0  0
 10 48  1  0  0  0  0
 11 27  1  0  0  0  0
 11 49  1  0  0  0  0
 12 26  2  0  0  0  0
 13 23  1  0  0  0  0
 13 50  1  0  0  0  0
 14 41  1  0  0  0  0
 15 24  1  0  0  0  0
 15 32  4  0  0  0  0
 15 34  4  0  0  0  0
 16 41  2  0  0  0  0
 17 18  1  0  0  0  0
 17 20  1  0  0  0  0
 17 51  1  0  0  0  0
 17 52  1  0  0  0  0
 18 23  1  0  0  0  0
 18 53  1  0  0  0  0
 18 54  1  0  0  0  0
 19 21  4  0  0  0  0
 19 29  1  0  0  0  0
 19 32  4  0  0  0  0
 20 24  1  0  0  0  0
 20 55  1  0  0  0  0
 20 56  1  0  0  0  0
 21 25  1  0  0  0  0
 21 34  4  0  0  0  0
 22 27  1  0  0  0  0
 22 28  1  0  0  0  0
 22 57  1  0  0  0  0
 22 58  1  0  0  0  0
 23 26  1  0  0  0  0
 23 59  1  0  0  0  0
 24 60  1  0  0  0  0
 24 61  1  0  0  0  0
 25 35  1  0  0  0  0
 25 62  1  0  0  0  0
 25 63  1  0  0  0  0
 27 31  1  0  0  0  0
 27 64  1  0  0  0  0
 28 30  1  0  0  0  0
 28 65  1  0  0  0  0
 28 66  1  0  0  0  0
 29 31  2  0  0  0  0
 29 67  1  0  0  0  0
 30 33  1  0  0  0  0
 30 68  1  0  0  0  0
 30 69  1  0  0  0  0
 31 70  1  0  0  0  0
 33 38  1  0  0  0  0
 33 71  1  0  0  0  0
 33 72  1  0  0  0  0
 35 36  2  0  0  0  0
 35 73  1  0  0  0  0
 36 37  1  0  0  0  0
 36 74  1  0  0  0  0
 37 39  1  0  0  0  0
 37 75  1  0  0  0  0
 37 76  1  0  0  0  0
 38 77  1  0  0  0  0
 38 78  1  0  0  0  0
 38 79  1  0  0  0  0
 39 40  1  0  0  0  0
 39 80  1  0  0  0  0
 39 81  1  0  0  0  0
 40 41  1  0  0  0  0
 40 82  1  0  0  0  0
 40 83  1  0  0  0  0
M  END
> <ConfClashScore>
0.00204904 

> <ConfOneFourInteractionScore>
-0.983881 

> <ConfScore>
0.306263 

> <ConfScorePBest>
0.00245097 

> <ConfTolerance>
2.06392 

$$$$
9548876
  PyMOL2.2          3D                             0

 83 83  0  0  0  0  0  0  0  0999 V2000
   -5.0023   -1.0567   -0.1066 H   0  0  0  1  0  0  0  0  0  0  0  0
   -2.7599    3.5735    0.7844 H   0  0  0  1  0  0  0  0  0  0  0  0
   -4.1071    3.6407   -0.3261 H   0  0  0  1  0  0  0  0  0  0  0  0
   -3.1566    3.1893   -0.1321 C   0  0  0  1  0  0  0  0  0  0  0  0
   -2.4842    3.4141   -0.9335 H   0  0  0  1  0  0  0  0  0  0  0  0
   -5.8914   -2.2173   -6.0994 N   0  0  0  1  0  0  0  0  0  0  0  0
   -4.9882    0.6903   -7.2292 C   0  0  0  1  0  0  0  0  0  0  0  0
   -4.4203    0.8628   -8.6100 C   0  0  0  1  0  0  0  0  0  0  0  0
   -6.0571    1.1759   -6.8975 O   0  0  0  1  0  0  0  0  0  0  0  0
   -6.8960   -3.2643   -6.2115 C   0  0  0  1  0  0  0  0  0  0  0  0
    1.9474   -0.5116    1.6097 O   0  0  0  1  0  0  0  0  0  0  0  0
   -6.7084   -1.4909   -4.1434 O   0  0  0  1  0  0  0  0  0  0  0  0
   -4.3032   -0.0182   -6.3303 N   0  0  0  1  0  0  0  0  0  0  0  0
    3.1716   -6.6225    1.1192 O   0  5  0  1  0  0  0  0  0  0  0  0
   -4.4925    1.0415   -0.2076 N   0  0  0  1  0  0  0  0  0  0  0  0
    2.2796   -5.7855   -0.7988 O   0  0  0  1  0  0  0  0  0  0  0  0
   -5.7777    0.6648   -2.8831 C   0  0  0  1  0  0  0  0  0  0  0  0
   -5.1430    0.9199   -4.2278 C   0  0  0  1  0  0  0  0  0  0  0  0
   -2.3400    0.7788    0.2805 C   0  0  0  1  0  0  0  0  0  0  0  0
   -5.9206    1.9199   -2.0360 C   0  0  0  1  0  0  0  0  0  0  0  0
   -2.9494   -0.4845    0.2774 C   0  0  0  1  0  0  0  0  0  0  0  0
    2.2920    0.3607   -0.6244 C   0  0  0  1  0  0  0  0  0  0  0  0
   -4.7824   -0.3529   -4.9747 C   0  0  0  1  0  0  0  0  0  0  0  0
   -5.7742    1.6608   -0.5462 C   0  0  0  1  0  0  0  0  0  0  0  0
   -2.2676   -1.8029    0.5573 C   0  0  0  1  0  0  0  0  0  0  0  0
   -5.9006   -1.3882   -5.0518 C   0  0  0  1  0  0  0  0  0  0  0  0
    1.5011    0.4375    0.6674 C   0  0  0  1  0  0  0  0  0  0  0  0
    1.7252    1.2229   -1.7249 C   0  0  0  1  0  0  0  0  0  0  0  0
   -0.9334    1.0482    0.5531 C   0  0  0  1  0  0  0  0  0  0  0  0
    1.7536    2.7210   -1.4633 C   0  0  0  1  0  0  0  0  0  0  0  0
    0.0499    0.1978    0.3955 C   0  0  0  1  0  0  0  0  0  0  0  0
   -3.3216    1.7125   -0.0222 C   0  0  0  1  0  0  0  0  0  0  0  0
    1.0959    3.5370   -2.5631 C   0  0  0  1  0  0  0  0  0  0  0  0
   -4.2850   -0.3079   -0.0275 C   0  0  0  1  0  0  0  0  0  0  0  0
   -1.4119   -1.8117    1.7783 C   0  0  0  1  0  0  0  0  0  0  0  0
   -0.8873   -2.8241    2.4222 C   0  0  0  1  0  0  0  0  0  0  0  0
   -0.7512   -4.2401    1.9297 C   0  0  0  1  0  0  0  0  0  0  0  0
    1.1894    5.0365   -2.3383 C   0  0  0  1  0  0  0  0  0  0  0  0
    0.6832   -4.6571    1.7188 C   0  0  0  1  0  0  0  0  0  0  0  0
    0.8821   -6.0513    1.1387 C   0  0  0  1  0  0  0  0  0  0  0  0
    2.1539   -6.1256    0.3661 C   0  0  0  1  0  0  0  0  0  0  0  0
   -5.2067   -2.1203   -6.7938 H   0  0  0  1  0  0  0  0  0  0  0  0
   -4.7256    1.8087   -9.0062 H   0  0  0  1  0  0  0  0  0  0  0  0
   -4.7789    0.0786   -9.2434 H   0  0  0  1  0  0  0  0  0  0  0  0
   -3.3520    0.8240   -8.5634 H   0  0  0  1  0  0  0  0  0  0  0  0
   -7.1886   -3.5848   -5.2335 H   0  0  0  1  0  0  0  0  0  0  0  0
   -6.4881   -4.0934   -6.7511 H   0  0  0  1  0  0  0  0  0  0  0  0
   -7.7500   -2.8845   -6.7325 H   0  0  0  1  0  0  0  0  0  0  0  0
    1.9077   -1.3897    1.2237 H   0  0  0  1  0  0  0  0  0  0  0  0
   -3.4148   -0.3409   -6.5893 H   0  0  0  1  0  0  0  0  0  0  0  0
   -5.1716   -0.0374   -2.3497 H   0  0  0  1  0  0  0  0  0  0  0  0
   -6.7510    0.2492   -3.0407 H   0  0  0  1  0  0  0  0  0  0  0  0
   -4.2501    1.4903   -4.0787 H   0  0  0  1  0  0  0  0  0  0  0  0
   -5.8299    1.4813   -4.8260 H   0  0  0  1  0  0  0  0  0  0  0  0
   -6.8882    2.3407   -2.2137 H   0  0  0  1  0  0  0  0  0  0  0  0
   -5.1670    2.6183   -2.3346 H   0  0  0  1  0  0  0  0  0  0  0  0
    2.2979   -0.6557   -0.9587 H   0  0  0  1  0  0  0  0  0  0  0  0
    3.2949    0.6777   -0.4274 H   0  0  0  1  0  0  0  0  0  0  0  0
   -3.9702   -0.8078   -4.4473 H   0  0  0  1  0  0  0  0  0  0  0  0
   -5.8524    2.5931   -0.0268 H   0  0  0  1  0  0  0  0  0  0  0  0
   -6.5632    1.0098   -0.2323 H   0  0  0  1  0  0  0  0  0  0  0  0
   -1.6518   -2.0453   -0.2835 H   0  0  0  1  0  0  0  0  0  0  0  0
   -3.0234   -2.5513    0.6740 H   0  0  0  1  0  0  0  0  0  0  0  0
    1.6080    1.4235    1.0689 H   0  0  0  1  0  0  0  0  0  0  0  0
    0.7063    0.9344   -1.8779 H   0  0  0  1  0  0  0  0  0  0  0  0
    2.2877    1.0331   -2.6151 H   0  0  0  1  0  0  0  0  0  0  0  0
   -0.6900    1.9970    0.9026 H   0  0  0  1  0  0  0  0  0  0  0  0
    2.7740    3.0307   -1.3752 H   0  0  0  1  0  0  0  0  0  0  0  0
    1.2409    2.9147   -0.5443 H   0  0  0  1  0  0  0  0  0  0  0  0
   -0.2060   -0.7466    0.0430 H   0  0  0  1  0  0  0  0  0  0  0  0
    0.0622    3.2655   -2.6150 H   0  0  0  1  0  0  0  0  0  0  0  0
    1.5738    3.3026   -3.4914 H   0  0  0  1  0  0  0  0  0  0  0  0
   -1.2005   -0.8751    2.1778 H   0  0  0  1  0  0  0  0  0  0  0  0
   -0.5254   -2.6288    3.3775 H   0  0  0  1  0  0  0  0  0  0  0  0
   -1.2720   -4.3286    0.9992 H   0  0  0  1  0  0  0  0  0  0  0  0
   -1.1939   -4.8954    2.6505 H   0  0  0  1  0  0  0  0  0  0  0  0
    0.4957    5.5379   -2.9804 H   0  0  0  1  0  0  0  0  0  0  0  0
    2.1825    5.3686   -2.5580 H   0  0  0  1  0  0  0  0  0  0  0  0
    0.9558    5.2592   -1.3182 H   0  0  0  1  0  0  0  0  0  0  0  0
    1.1798   -4.6203    2.6658 H   0  0  0  1  0  0  0  0  0  0  0  0
    1.1357   -3.9546    1.0506 H   0  0  0  1  0  0  0  0  0  0  0  0
    0.0632   -6.2813    0.4895 H   0  0  0  1  0  0  0  0  0  0  0  0
    0.9149   -6.7623    1.9377 H   0  0  0  1  0  0  0  0  0  0  0  0
  1 34  1  0  0  0  0
  2  4  1  0  0  0  0
  3  4  1  0  0  0  0
  4  5  1  0  0  0  0
  4 32  1  0  0  0  0
  6 10  1  0  0  0  0
  6 26  1  0  0  0  0
  6 42  1  0  0  0  0
  7  8  1  0  0  0  0
  7  9  2  0  0  0  0
  7 13  1  0  0  0  0
  8 43  1  0  0  0  0
  8 44  1  0  0  0  0
  8 45  1  0  0  0  0
 10 46  1  0  0  0  0
 10 47  1  0  0  0  0
 10 48  1  0  0  0  0
 11 27  1  0  0  0  0
 11 49  1  0  0  0  0
 12 26  2  0  0  0  0
 13 23  1  0  0  0  0
 13 50  1  0  0  0  0
 14 41  1  0  0  0  0
 15 24  1  0  0  0  0
 15 32  4  0  0  0  0
 15 34  4  0  0  0  0
 16 41  2  0  0  0  0
 17 18  1  0  0  0  0
 17 20  1  0  0  0  0
 17 51  1  0  0  0  0
 17 52  1  0  0  0  0
 18 23  1  0  0  0  0
 18 53  1  0  0  0  0
 18 54  1  0  0  0  0
 19 21  4  0  0  0  0
 19 29  1  0  0  0  0
 19 32  4  0  0  0  0
 20 24  1  0  0  0  0
 20 55  1  0  0  0  0
 20 56  1  0  0  0  0
 21 25  1  0  0  0  0
 21 34  4  0  0  0  0
 22 27  1  0  0  0  0
 22 28  1  0  0  0  0
 22 57  1  0  0  0  0
 22 58  1  0  0  0  0
 23 26  1  0  0  0  0
 23 59  1  0  0  0  0
 24 60  1  0  0  0  0
 24 61  1  0  0  0  0
 25 35  1  0  0  0  0
 25 62  1  0  0  0  0
 25 63  1  0  0  0  0
 27 31  1  0  0  0  0
 27 64  1  0  0  0  0
 28 30  1  0  0  0  0
 28 65  1  0  0  0  0
 28 66  1  0  0  0  0
 29 31  2  0  0  0  0
 29 67  1  0  0  0  0
 30 33  1  0  0  0  0
 30 68  1  0  0  0  0
 30 69  1  0  0  0  0
 31 70  1  0  0  0  0
 33 38  1  0  0  0  0
 33 71  1  0  0  0  0
 33 72  1  0  0  0  0
 35 36  2  0  0  0  0
 35 73  1  0  0  0  0
 36 37  1  0  0  0  0
 36 74  1  0  0  0  0
 37 39  1  0  0  0  0
 37 75  1  0  0  0  0
 37 76  1  0  0  0  0
 38 77  1  0  0  0  0
 38 78  1  0  0  0  0
 38 79  1  0  0  0  0
 39 40  1  0  0  0  0
 39 80  1  0  0  0  0
 39 81  1  0  0  0  0
 40 41  1  0  0  0  0
 40 82  1  0  0  0  0
 40 83  1  0  0  0  0
M  END
> <ConfClashScore>
0 

> <ConfOneFourInteractionScore>
-0.98655 

> <ConfScore>
0.312395 

> <ConfScorePBest>
0.00242249 

> <ConfTolerance>
2.34618 

$$$$
9548876
  PyMOL2.2          3D                             0

 83 83  0  0  0  0  0  0  0  0999 V2000
   -4.9936   -1.0505   -0.0806 H   0  0  0  1  0  0  0  0  0  0  0  0
   -2.9173    3.6069    0.8188 H   0  0  0  1  0  0  0  0  0  0  0  0
   -4.1283    3.5935   -0.4405 H   0  0  0  1  0  0  0  0  0  0  0  0
   -3.1873    3.1905   -0.1291 C   0  0  0  1  0  0  0  0  0  0  0  0
   -2.4373    3.4346   -0.8522 H   0  0  0  1  0  0  0  0  0  0  0  0
   -8.0119    5.7081    4.0792 N   0  0  0  1  0  0  0  0  0  0  0  0
   -3.5899    3.8325    3.7598 C   0  0  0  1  0  0  0  0  0  0  0  0
   -2.5813    3.0340    4.5542 C   0  0  0  1  0  0  0  0  0  0  0  0
   -3.2593    4.4228    2.7326 O   0  0  0  1  0  0  0  0  0  0  0  0
   -9.0074    6.3126    4.9518 C   0  0  0  1  0  0  0  0  0  0  0  0
    1.1933    2.7197    0.9631 O   0  0  0  1  0  0  0  0  0  0  0  0
   -6.4767    5.4467    5.6905 O   0  0  0  1  0  0  0  0  0  0  0  0
   -4.8482    3.8771    4.2068 N   0  0  0  1  0  0  0  0  0  0  0  0
    0.1335   -7.1295    1.8042 O   0  5  0  1  0  0  0  0  0  0  0  0
   -4.4737    1.0452   -0.1817 N   0  0  0  1  0  0  0  0  0  0  0  0
    2.3771   -6.8468    2.1633 O   0  0  0  1  0  0  0  0  0  0  0  0
   -5.8794    3.2286    1.3716 C   0  0  0  1  0  0  0  0  0  0  0  0
   -6.6766    3.7769    2.5291 C   0  0  0  1  0  0  0  0  0  0  0  0
   -2.3169    0.7695    0.2793 C   0  0  0  1  0  0  0  0  0  0  0  0
   -6.5629    2.1346    0.5658 C   0  0  0  1  0  0  0  0  0  0  0  0
   -2.9330   -0.4904    0.2800 C   0  0  0  1  0  0  0  0  0  0  0  0
    1.5679    1.8265    3.1442 C   0  0  0  1  0  0  0  0  0  0  0  0
   -5.8889    4.6325    3.5255 C   0  0  0  1  0  0  0  0  0  0  0  0
   -5.7048    1.7152   -0.6019 C   0  0  0  1  0  0  0  0  0  0  0  0
   -2.3098   -1.8416    0.5394 C   0  0  0  1  0  0  0  0  0  0  0  0
   -6.8104    5.3281    4.5230 C   0  0  0  1  0  0  0  0  0  0  0  0
    1.1930    1.4979    1.6952 C   0  0  0  1  0  0  0  0  0  0  0  0
    1.6809    0.5993    4.0294 C   0  0  0  1  0  0  0  0  0  0  0  0
   -0.9034    1.0310    0.5359 C   0  0  0  1  0  0  0  0  0  0  0  0
    1.9094    0.9994    5.4789 C   0  0  0  1  0  0  0  0  0  0  0  0
   -0.1359    0.7917    1.6479 C   0  0  0  1  0  0  0  0  0  0  0  0
   -3.2971    1.7094   -0.0086 C   0  0  0  1  0  0  0  0  0  0  0  0
    1.9455   -0.2273    6.3774 C   0  0  0  1  0  0  0  0  0  0  0  0
   -4.2713   -0.3058   -0.0081 C   0  0  0  1  0  0  0  0  0  0  0  0
   -1.5683   -1.8827    1.8378 C   0  0  0  1  0  0  0  0  0  0  0  0
   -0.7386   -2.8327    2.1979 C   0  0  0  1  0  0  0  0  0  0  0  0
   -0.4743   -4.0573    1.3633 C   0  0  0  1  0  0  0  0  0  0  0  0
    0.6518   -1.0171    6.2631 C   0  0  0  1  0  0  0  0  0  0  0  0
    0.9952   -4.2263    1.0004 C   0  0  0  1  0  0  0  0  0  0  0  0
    1.3229   -5.6015    0.4336 C   0  0  0  1  0  0  0  0  0  0  0  0
    1.3534   -6.5828    1.5543 C   0  0  0  1  0  0  0  0  0  0  0  0
   -8.2304    5.5753    3.1332 H   0  0  0  1  0  0  0  0  0  0  0  0
   -1.6004    3.4251    4.3817 H   0  0  0  1  0  0  0  0  0  0  0  0
   -2.6157    2.0097    4.2466 H   0  0  0  1  0  0  0  0  0  0  0  0
   -2.8140    3.1020    5.5964 H   0  0  0  1  0  0  0  0  0  0  0  0
   -9.8529    6.6179    4.3715 H   0  0  0  1  0  0  0  0  0  0  0  0
   -8.5832    7.1652    5.4396 H   0  0  0  1  0  0  0  0  0  0  0  0
   -9.3182    5.5989    5.6861 H   0  0  0  1  0  0  0  0  0  0  0  0
    0.2924    2.9513    0.7258 H   0  0  0  1  0  0  0  0  0  0  0  0
   -5.0783    3.3840    5.0219 H   0  0  0  1  0  0  0  0  0  0  0  0
   -4.9658    2.8297    1.7603 H   0  0  0  1  0  0  0  0  0  0  0  0
   -5.6615    4.0393    0.7082 H   0  0  0  1  0  0  0  0  0  0  0  0
   -7.0940    2.9491    3.0633 H   0  0  0  1  0  0  0  0  0  0  0  0
   -7.4660    4.3789    2.1298 H   0  0  0  1  0  0  0  0  0  0  0  0
   -7.4989    2.5015    0.1995 H   0  0  0  1  0  0  0  0  0  0  0  0
   -6.7337    1.2881    1.1976 H   0  0  0  1  0  0  0  0  0  0  0  0
    0.8166    2.4705    3.5513 H   0  0  0  1  0  0  0  0  0  0  0  0
    2.5106    2.3328    3.1442 H   0  0  0  1  0  0  0  0  0  0  0  0
   -5.4105    5.4031    2.9580 H   0  0  0  1  0  0  0  0  0  0  0  0
   -6.2673    1.0444   -1.2173 H   0  0  0  1  0  0  0  0  0  0  0  0
   -5.4455    2.5860   -1.1671 H   0  0  0  1  0  0  0  0  0  0  0  0
   -1.6273   -2.0641   -0.2540 H   0  0  0  1  0  0  0  0  0  0  0  0
   -3.0843   -2.5795    0.5617 H   0  0  0  1  0  0  0  0  0  0  0  0
    1.9383    0.8409    1.2982 H   0  0  0  1  0  0  0  0  0  0  0  0
    2.5034    0.0013    3.6966 H   0  0  0  1  0  0  0  0  0  0  0  0
    0.7761    0.0324    3.9603 H   0  0  0  1  0  0  0  0  0  0  0  0
   -0.3935    1.4719   -0.2560 H   0  0  0  1  0  0  0  0  0  0  0  0
    1.1148    1.6425    5.7948 H   0  0  0  1  0  0  0  0  0  0  0  0
    2.8417    1.5188    5.5567 H   0  0  0  1  0  0  0  0  0  0  0  0
   -0.4528    0.1609    2.4116 H   0  0  0  1  0  0  0  0  0  0  0  0
    2.0774    0.0850    7.3923 H   0  0  0  1  0  0  0  0  0  0  0  0
    2.7645   -0.8514    6.0865 H   0  0  0  1  0  0  0  0  0  0  0  0
   -1.7221   -1.0998    2.5048 H   0  0  0  1  0  0  0  0  0  0  0  0
   -0.2386   -2.7350    3.1046 H   0  0  0  1  0  0  0  0  0  0  0  0
   -1.0419   -3.9824    0.4593 H   0  0  0  1  0  0  0  0  0  0  0  0
   -0.7906   -4.9190    1.9132 H   0  0  0  1  0  0  0  0  0  0  0  0
    0.4755   -1.5478    7.1753 H   0  0  0  1  0  0  0  0  0  0  0  0
    0.7299   -1.7138    5.4548 H   0  0  0  1  0  0  0  0  0  0  0  0
   -0.1606   -0.3456    6.0787 H   0  0  0  1  0  0  0  0  0  0  0  0
    1.5820   -4.0742    1.8821 H   0  0  0  1  0  0  0  0  0  0  0  0
    1.2512   -3.4882    0.2693 H   0  0  0  1  0  0  0  0  0  0  0  0
    2.2781   -5.5745   -0.0479 H   0  0  0  1  0  0  0  0  0  0  0  0
    0.5737   -5.8870   -0.2750 H   0  0  0  1  0  0  0  0  0  0  0  0
  1 34  1  0  0  0  0
  2  4  1  0  0  0  0
  3  4  1  0  0  0  0
  4  5  1  0  0  0  0
  4 32  1  0  0  0  0
  6 10  1  0  0  0  0
  6 26  1  0  0  0  0
  6 42  1  0  0  0  0
  7  8  1  0  0  0  0
  7  9  2  0  0  0  0
  7 13  1  0  0  0  0
  8 43  1  0  0  0  0
  8 44  1  0  0  0  0
  8 45  1  0  0  0  0
 10 46  1  0  0  0  0
 10 47  1  0  0  0  0
 10 48  1  0  0  0  0
 11 27  1  0  0  0  0
 11 49  1  0  0  0  0
 12 26  2  0  0  0  0
 13 23  1  0  0  0  0
 13 50  1  0  0  0  0
 14 41  1  0  0  0  0
 15 24  1  0  0  0  0
 15 32  4  0  0  0  0
 15 34  4  0  0  0  0
 16 41  2  0  0  0  0
 17 18  1  0  0  0  0
 17 20  1  0  0  0  0
 17 51  1  0  0  0  0
 17 52  1  0  0  0  0
 18 23  1  0  0  0  0
 18 53  1  0  0  0  0
 18 54  1  0  0  0  0
 19 21  4  0  0  0  0
 19 29  1  0  0  0  0
 19 32  4  0  0  0  0
 20 24  1  0  0  0  0
 20 55  1  0  0  0  0
 20 56  1  0  0  0  0
 21 25  1  0  0  0  0
 21 34  4  0  0  0  0
 22 27  1  0  0  0  0
 22 28  1  0  0  0  0
 22 57  1  0  0  0  0
 22 58  1  0  0  0  0
 23 26  1  0  0  0  0
 23 59  1  0  0  0  0
 24 60  1  0  0  0  0
 24 61  1  0  0  0  0
 25 35  1  0  0  0  0
 25 62  1  0  0  0  0
 25 63  1  0  0  0  0
 27 31  1  0  0  0  0
 27 64  1  0  0  0  0
 28 30  1  0  0  0  0
 28 65  1  0  0  0  0
 28 66  1  0  0  0  0
 29 31  2  0  0  0  0
 29 67  1  0  0  0  0
 30 33  1  0  0  0  0
 30 68  1  0  0  0  0
 30 69  1  0  0  0  0
 31 70  1  0  0  0  0
 33 38  1  0  0  0  0
 33 71  1  0  0  0  0
 33 72  1  0  0  0  0
 35 36  2  0  0  0  0
 35 73  1  0  0  0  0
 36 37  1  0  0  0  0
 36 74  1  0  0  0  0
 37 39  1  0  0  0  0
 37 75  1  0  0  0  0
 37 76  1  0  0  0  0
 38 77  1  0  0  0  0
 38 78  1  0  0  0  0
 38 79  1  0  0  0  0
 39 40  1  0  0  0  0
 39 80  1  0  0  0  0
 39 81  1  0  0  0  0
 40 41  1  0  0  0  0
 40 82  1  0  0  0  0
 40 83  1  0  0  0  0
M  END
> <ConfClashScore>
0 

> <ConfOneFourInteractionScore>
-0.985955 

> <ConfScore>
0.324448 

> <ConfScorePBest>
0.00239401 

> <ConfTolerance>
2.95569 

$$$$
9548876
  PyMOL2.2          3D                             0

 83 83  0  0  0  0  0  0  0  0999 V2000
   -4.9995   -1.0567   -0.1325 H   0  0  0  1  0  0  0  0  0  0  0  0
   -2.8781    3.4441   -1.1411 H   0  0  0  1  0  0  0  0  0  0  0  0
   -2.3859    3.5118    0.5339 H   0  0  0  1  0  0  0  0  0  0  0  0
   -3.1527    3.1889   -0.1389 C   0  0  0  1  0  0  0  0  0  0  0  0
   -4.0743    3.6712    0.1119 H   0  0  0  1  0  0  0  0  0  0  0  0
  -10.5967    3.2657   -1.9158 N   0  0  0  1  0  0  0  0  0  0  0  0
   -8.5627    7.2116   -1.9523 C   0  0  0  1  0  0  0  0  0  0  0  0
   -8.6470    8.5552   -1.2315 C   0  0  0  1  0  0  0  0  0  0  0  0
   -8.4158    7.1537   -3.1721 O   0  0  0  1  0  0  0  0  0  0  0  0
  -11.7245    2.4504   -1.4902 C   0  0  0  1  0  0  0  0  0  0  0  0
    1.8505    1.4673    0.8539 O   0  0  0  1  0  0  0  0  0  0  0  0
  -10.2096    4.2803    0.0443 O   0  0  0  1  0  0  0  0  0  0  0  0
   -8.5682    6.1173   -1.1747 N   0  0  0  1  0  0  0  0  0  0  0  0
   -5.4063   -1.9351   -6.2173 O   0  5  0  1  0  0  0  0  0  0  0  0
   -4.4880    1.0413   -0.2292 N   0  0  0  1  0  0  0  0  0  0  0  0
   -4.4955   -3.7763   -5.3077 O   0  0  0  1  0  0  0  0  0  0  0  0
   -7.4447    2.5785   -2.1070 C   0  0  0  1  0  0  0  0  0  0  0  0
   -7.3966    3.9745   -1.5052 C   0  0  0  1  0  0  0  0  0  0  0  0
   -2.3420    0.7787    0.2866 C   0  0  0  1  0  0  0  0  0  0  0  0
   -6.1067    1.8756   -1.9452 C   0  0  0  1  0  0  0  0  0  0  0  0
   -2.9514   -0.4844    0.2770 C   0  0  0  1  0  0  0  0  0  0  0  0
    1.8266   -0.1422    2.6366 C   0  0  0  1  0  0  0  0  0  0  0  0
   -8.6842    4.7744   -1.7233 C   0  0  0  1  0  0  0  0  0  0  0  0
   -5.7875    1.6628   -0.4861 C   0  0  0  1  0  0  0  0  0  0  0  0
   -2.2736   -1.8027    0.5670 C   0  0  0  1  0  0  0  0  0  0  0  0
   -9.9196    4.1056   -1.1278 C   0  0  0  1  0  0  0  0  0  0  0  0
    1.3382    0.2081    1.2283 C   0  0  0  1  0  0  0  0  0  0  0  0
    1.2263   -1.4285    3.1800 C   0  0  0  1  0  0  0  0  0  0  0  0
   -0.9384    1.0482    0.5769 C   0  0  0  1  0  0  0  0  0  0  0  0
    2.1537   -2.6135    3.0722 C   0  0  0  1  0  0  0  0  0  0  0  0
   -0.1556    0.1744    1.1586 C   0  0  0  1  0  0  0  0  0  0  0  0
   -3.3194    1.7123   -0.0296 C   0  0  0  1  0  0  0  0  0  0  0  0
    1.5822   -3.9374    3.5529 C   0  0  0  1  0  0  0  0  0  0  0  0
   -4.2830   -0.3079   -0.0451 C   0  0  0  1  0  0  0  0  0  0  0  0
   -1.1100   -2.0520   -0.3392 C   0  0  0  1  0  0  0  0  0  0  0  0
   -1.1058   -2.0094   -1.6480 C   0  0  0  1  0  0  0  0  0  0  0  0
   -2.1894   -1.3943   -2.4926 C   0  0  0  1  0  0  0  0  0  0  0  0
    0.3799   -4.3412    2.7151 C   0  0  0  1  0  0  0  0  0  0  0  0
   -2.9240   -2.3562   -3.4119 C   0  0  0  1  0  0  0  0  0  0  0  0
   -3.8740   -1.6611   -4.3785 C   0  0  0  1  0  0  0  0  0  0  0  0
   -4.5992   -2.5608   -5.3192 C   0  0  0  1  0  0  0  0  0  0  0  0
  -10.3126    3.1933   -2.8509 H   0  0  0  1  0  0  0  0  0  0  0  0
   -8.1185    8.4962   -0.3030 H   0  0  0  1  0  0  0  0  0  0  0  0
   -9.6727    8.7949   -1.0432 H   0  0  0  1  0  0  0  0  0  0  0  0
   -8.2089    9.3159   -1.8433 H   0  0  0  1  0  0  0  0  0  0  0  0
  -11.3662    1.5993   -0.9497 H   0  0  0  1  0  0  0  0  0  0  0  0
  -12.2716    2.1224   -2.3494 H   0  0  0  1  0  0  0  0  0  0  0  0
  -12.3651    3.0299   -0.8588 H   0  0  0  1  0  0  0  0  0  0  0  0
    2.3451    1.8425    1.5861 H   0  0  0  1  0  0  0  0  0  0  0  0
   -8.4914    6.2266   -0.2039 H   0  0  0  1  0  0  0  0  0  0  0  0
   -7.6780    2.6533   -3.1485 H   0  0  0  1  0  0  0  0  0  0  0  0
   -8.2026    2.0086   -1.6112 H   0  0  0  1  0  0  0  0  0  0  0  0
   -6.5851    4.5092   -1.9529 H   0  0  0  1  0  0  0  0  0  0  0  0
   -7.2274    3.8845   -0.4525 H   0  0  0  1  0  0  0  0  0  0  0  0
   -5.3395    2.4754   -2.3883 H   0  0  0  1  0  0  0  0  0  0  0  0
   -6.1472    0.9265   -2.4375 H   0  0  0  1  0  0  0  0  0  0  0  0
    1.5649    0.6592    3.2955 H   0  0  0  1  0  0  0  0  0  0  0  0
    2.8909   -0.2494    2.6096 H   0  0  0  1  0  0  0  0  0  0  0  0
   -8.8381    4.8531   -2.7793 H   0  0  0  1  0  0  0  0  0  0  0  0
   -5.8033    2.6154    0.0008 H   0  0  0  1  0  0  0  0  0  0  0  0
   -6.5458    1.0349   -0.0672 H   0  0  0  1  0  0  0  0  0  0  0  0
   -2.9852   -2.5914    0.4385 H   0  0  0  1  0  0  0  0  0  0  0  0
   -1.9265   -1.7962    1.5791 H   0  0  0  1  0  0  0  0  0  0  0  0
    1.7139   -0.5380    0.5597 H   0  0  0  1  0  0  0  0  0  0  0  0
    0.3339   -1.6450    2.6306 H   0  0  0  1  0  0  0  0  0  0  0  0
    0.9836   -1.2803    4.2115 H   0  0  0  1  0  0  0  0  0  0  0  0
   -0.5428    1.9725    0.3109 H   0  0  0  1  0  0  0  0  0  0  0  0
    3.0276   -2.4018    3.6522 H   0  0  0  1  0  0  0  0  0  0  0  0
    2.4262   -2.7263    2.0437 H   0  0  0  1  0  0  0  0  0  0  0  0
   -0.6233   -0.6304    1.6226 H   0  0  0  1  0  0  0  0  0  0  0  0
    1.2806   -3.8390    4.5748 H   0  0  0  1  0  0  0  0  0  0  0  0
    2.3348   -4.6938    3.4739 H   0  0  0  1  0  0  0  0  0  0  0  0
   -0.2062   -2.2844    0.1199 H   0  0  0  1  0  0  0  0  0  0  0  0
   -0.2933   -2.4321   -2.1407 H   0  0  0  1  0  0  0  0  0  0  0  0
   -1.7435   -0.6337   -3.0990 H   0  0  0  1  0  0  0  0  0  0  0  0
   -2.9085   -0.9514   -1.8357 H   0  0  0  1  0  0  0  0  0  0  0  0
    0.3140   -5.4085    2.6761 H   0  0  0  1  0  0  0  0  0  0  0  0
    0.4903   -3.9544    1.7236 H   0  0  0  1  0  0  0  0  0  0  0  0
   -0.5109   -3.9450    3.1559 H   0  0  0  1  0  0  0  0  0  0  0  0
   -3.4902   -3.0356   -2.8095 H   0  0  0  1  0  0  0  0  0  0  0  0
   -2.2001   -2.9014   -3.9809 H   0  0  0  1  0  0  0  0  0  0  0  0
   -3.3038   -0.9666   -4.9594 H   0  0  0  1  0  0  0  0  0  0  0  0
   -4.6023   -1.1307   -3.8014 H   0  0  0  1  0  0  0  0  0  0  0  0
  1 34  1  0  0  0  0
  2  4  1  0  0  0  0
  3  4  1  0  0  0  0
  4  5  1  0  0  0  0
  4 32  1  0  0  0  0
  6 10  1  0  0  0  0
  6 26  1  0  0  0  0
  6 42  1  0  0  0  0
  7  8  1  0  0  0  0
  7  9  2  0  0  0  0
  7 13  1  0  0  0  0
  8 43  1  0  0  0  0
  8 44  1  0  0  0  0
  8 45  1  0  0  0  0
 10 46  1  0  0  0  0
 10 47  1  0  0  0  0
 10 48  1  0  0  0  0
 11 27  1  0  0  0  0
 11 49  1  0  0  0  0
 12 26  2  0  0  0  0
 13 23  1  0  0  0  0
 13 50  1  0  0  0  0
 14 41  1  0  0  0  0
 15 24  1  0  0  0  0
 15 32  4  0  0  0  0
 15 34  4  0  0  0  0
 16 41  2  0  0  0  0
 17 18  1  0  0  0  0
 17 20  1  0  0  0  0
 17 51  1  0  0  0  0
 17 52  1  0  0  0  0
 18 23  1  0  0  0  0
 18 53  1  0  0  0  0
 18 54  1  0  0  0  0
 19 21  4  0  0  0  0
 19 29  1  0  0  0  0
 19 32  4  0  0  0  0
 20 24  1  0  0  0  0
 20 55  1  0  0  0  0
 20 56  1  0  0  0  0
 21 25  1  0  0  0  0
 21 34  4  0  0  0  0
 22 27  1  0  0  0  0
 22 28  1  0  0  0  0
 22 57  1  0  0  0  0
 22 58  1  0  0  0  0
 23 26  1  0  0  0  0
 23 59  1  0  0  0  0
 24 60  1  0  0  0  0
 24 61  1  0  0  0  0
 25 35  1  0  0  0  0
 25 62  1  0  0  0  0
 25 63  1  0  0  0  0
 27 31  1  0  0  0  0
 27 64  1  0  0  0  0
 28 30  1  0  0  0  0
 28 65  1  0  0  0  0
 28 66  1  0  0  0  0
 29 31  2  0  0  0  0
 29 67  1  0  0  0  0
 30 33  1  0  0  0  0
 30 68  1  0  0  0  0
 30 69  1  0  0  0  0
 31 70  1  0  0  0  0
 33 38  1  0  0  0  0
 33 71  1  0  0  0  0
 33 72  1  0  0  0  0
 35 36  2  0  0  0  0
 35 73  1  0  0  0  0
 36 37  1  0  0  0  0
 36 74  1  0  0  0  0
 37 39  1  0  0  0  0
 37 75  1  0  0  0  0
 37 76  1  0  0  0  0
 38 77  1  0  0  0  0
 38 78  1  0  0  0  0
 38 79  1  0  0  0  0
 39 40  1  0  0  0  0
 39 80  1  0  0  0  0
 39 81  1  0  0  0  0
 40 41  1  0  0  0  0
 40 82  1  0  0  0  0
 40 83  1  0  0  0  0
M  END
> <ConfClashScore>
0.00127598 

> <ConfOneFourInteractionScore>
-0.99422 

> <ConfScore>
0.332498 

> <ConfScorePBest>
0.00236553 

> <ConfTolerance>
2.53208 

$$$$
9548876
  PyMOL2.2          3D                             0

 83 83  0  0  0  0  0  0  0  0999 V2000
   -4.9899   -1.0628   -0.1301 H   0  0  0  1  0  0  0  0  0  0  0  0
   -2.6028    3.5513    0.7057 H   0  0  0  1  0  0  0  0  0  0  0  0
   -4.1150    3.6535   -0.1634 H   0  0  0  1  0  0  0  0  0  0  0  0
   -3.1515    3.1890   -0.1385 C   0  0  0  1  0  0  0  0  0  0  0  0
   -2.6190    3.4227   -1.0367 H   0  0  0  1  0  0  0  0  0  0  0  0
   -6.0113   -1.3388   -4.8620 N   0  0  0  1  0  0  0  0  0  0  0  0
   -9.9852    0.0013   -3.6583 C   0  0  0  1  0  0  0  0  0  0  0  0
  -10.8322   -0.8645   -2.7461 C   0  0  0  1  0  0  0  0  0  0  0  0
  -10.3704    1.1111   -4.0239 O   0  0  0  1  0  0  0  0  0  0  0  0
   -4.9195   -2.2100   -5.2702 C   0  0  0  1  0  0  0  0  0  0  0  0
    1.7659    1.6554    1.3216 O   0  0  0  1  0  0  0  0  0  0  0  0
   -6.9740   -0.9056   -6.8550 O   0  0  0  1  0  0  0  0  0  0  0  0
   -8.8071   -0.5222   -4.0302 N   0  0  0  1  0  0  0  0  0  0  0  0
   -0.1530   -1.7373    7.2879 O   0  5  0  1  0  0  0  0  0  0  0  0
   -4.4827    1.0362   -0.2276 N   0  0  0  1  0  0  0  0  0  0  0  0
    0.5066    0.2271    6.3495 O   0  0  0  1  0  0  0  0  0  0  0  0
   -6.8523    0.9299   -2.6957 C   0  0  0  1  0  0  0  0  0  0  0  0
   -7.1708    1.2710   -4.1303 C   0  0  0  1  0  0  0  0  0  0  0  0
   -2.3361    0.7781    0.2880 C   0  0  0  1  0  0  0  0  0  0  0  0
   -6.0108    1.9424   -1.9590 C   0  0  0  1  0  0  0  0  0  0  0  0
   -2.9430   -0.4862    0.2790 C   0  0  0  1  0  0  0  0  0  0  0  0
    1.9433   -0.7000    1.6254 C   0  0  0  1  0  0  0  0  0  0  0  0
   -7.8954    0.1736   -4.9261 C   0  0  0  1  0  0  0  0  0  0  0  0
   -5.7835    1.6550   -0.4846 C   0  0  0  1  0  0  0  0  0  0  0  0
   -2.3168   -1.8317    0.5600 C   0  0  0  1  0  0  0  0  0  0  0  0
   -6.8970   -0.7240   -5.6511 C   0  0  0  1  0  0  0  0  0  0  0  0
    1.4780    0.4120    0.6847 C   0  0  0  1  0  0  0  0  0  0  0  0
    1.6405   -2.0956    1.1049 C   0  0  0  1  0  0  0  0  0  0  0  0
   -0.9431    1.1050    0.5703 C   0  0  0  1  0  0  0  0  0  0  0  0
    2.4916   -2.4906   -0.0899 C   0  0  0  1  0  0  0  0  0  0  0  0
    0.0188    0.2527    0.4225 C   0  0  0  1  0  0  0  0  0  0  0  0
   -3.3155    1.7097   -0.0284 C   0  0  0  1  0  0  0  0  0  0  0  0
    2.1045   -3.8590   -0.5932 C   0  0  0  1  0  0  0  0  0  0  0  0
   -4.2750   -0.3125   -0.0430 C   0  0  0  1  0  0  0  0  0  0  0  0
   -3.0712   -2.6766    1.5296 C   0  0  0  1  0  0  0  0  0  0  0  0
   -2.7370   -3.0640    2.7350 C   0  0  0  1  0  0  0  0  0  0  0  0
   -1.3666   -3.0160    3.3559 C   0  0  0  1  0  0  0  0  0  0  0  0
    0.6655   -4.0016   -1.0587 C   0  0  0  1  0  0  0  0  0  0  0  0
   -1.3034   -2.1318    4.5945 C   0  0  0  1  0  0  0  0  0  0  0  0
    0.1091   -1.6814    4.9434 C   0  0  0  1  0  0  0  0  0  0  0  0
    0.1841   -0.9440    6.2360 C   0  0  0  1  0  0  0  0  0  0  0  0
   -6.1078   -1.1855   -3.8989 H   0  0  0  1  0  0  0  0  0  0  0  0
  -11.8665   -0.6332   -2.8933 H   0  0  0  1  0  0  0  0  0  0  0  0
  -10.5662   -0.6754   -1.7271 H   0  0  0  1  0  0  0  0  0  0  0  0
  -10.6616   -1.8959   -2.9743 H   0  0  0  1  0  0  0  0  0  0  0  0
   -5.2710   -2.9021   -6.0066 H   0  0  0  1  0  0  0  0  0  0  0  0
   -4.5561   -2.7484   -4.4199 H   0  0  0  1  0  0  0  0  0  0  0  0
   -4.1285   -1.6202   -5.6841 H   0  0  0  1  0  0  0  0  0  0  0  0
    1.0486    1.8839    1.9174 H   0  0  0  1  0  0  0  0  0  0  0  0
   -8.5517   -1.4037   -3.6866 H   0  0  0  1  0  0  0  0  0  0  0  0
   -6.3281   -0.0028   -2.6873 H   0  0  0  1  0  0  0  0  0  0  0  0
   -7.7775    0.8245   -2.1688 H   0  0  0  1  0  0  0  0  0  0  0  0
   -6.2496    1.4867   -4.6301 H   0  0  0  1  0  0  0  0  0  0  0  0
   -7.7908    2.1431   -4.1319 H   0  0  0  1  0  0  0  0  0  0  0  0
   -6.4947    2.8935   -2.0385 H   0  0  0  1  0  0  0  0  0  0  0  0
   -5.0548    1.9870   -2.4373 H   0  0  0  1  0  0  0  0  0  0  0  0
    1.4516   -0.5752    2.5675 H   0  0  0  1  0  0  0  0  0  0  0  0
    3.0010   -0.6101    1.7599 H   0  0  0  1  0  0  0  0  0  0  0  0
   -8.4797    0.6649   -5.6759 H   0  0  0  1  0  0  0  0  0  0  0  0
   -5.8377    2.5764    0.0566 H   0  0  0  1  0  0  0  0  0  0  0  0
   -6.5515    0.9936   -0.1418 H   0  0  0  1  0  0  0  0  0  0  0  0
   -1.3354   -1.6674    0.9535 H   0  0  0  1  0  0  0  0  0  0  0  0
   -2.2461   -2.3664   -0.3642 H   0  0  0  1  0  0  0  0  0  0  0  0
    2.0111    0.3330   -0.2397 H   0  0  0  1  0  0  0  0  0  0  0  0
    0.6111   -2.1338    0.8155 H   0  0  0  1  0  0  0  0  0  0  0  0
    1.8162   -2.7973    1.8933 H   0  0  0  1  0  0  0  0  0  0  0  0
   -0.7135    2.0629    0.9042 H   0  0  0  1  0  0  0  0  0  0  0  0
    3.5212   -2.5021    0.2012 H   0  0  0  1  0  0  0  0  0  0  0  0
    2.3500   -1.7756   -0.8733 H   0  0  0  1  0  0  0  0  0  0  0  0
   -0.2682   -0.6821    0.0684 H   0  0  0  1  0  0  0  0  0  0  0  0
    2.2654   -4.5594    0.1996 H   0  0  0  1  0  0  0  0  0  0  0  0
    2.7429   -4.0997   -1.4175 H   0  0  0  1  0  0  0  0  0  0  0  0
   -4.0005   -3.0072    1.1998 H   0  0  0  1  0  0  0  0  0  0  0  0
   -3.5014   -3.4464    3.3277 H   0  0  0  1  0  0  0  0  0  0  0  0
   -0.6773   -2.6363    2.6309 H   0  0  0  1  0  0  0  0  0  0  0  0
   -1.0828   -4.0100    3.6322 H   0  0  0  1  0  0  0  0  0  0  0  0
    0.4647   -3.2817   -1.8244 H   0  0  0  1  0  0  0  0  0  0  0  0
    0.0057   -3.8367   -0.2327 H   0  0  0  1  0  0  0  0  0  0  0  0
    0.5124   -4.9869   -1.4469 H   0  0  0  1  0  0  0  0  0  0  0  0
   -1.6990   -2.6805    5.4235 H   0  0  0  1  0  0  0  0  0  0  0  0
   -1.9036   -1.2630    4.4221 H   0  0  0  1  0  0  0  0  0  0  0  0
    0.4643   -1.0399    4.1642 H   0  0  0  1  0  0  0  0  0  0  0  0
    0.7361   -2.5461    5.0078 H   0  0  0  1  0  0  0  0  0  0  0  0
  1 34  1  0  0  0  0
  2  4  1  0  0  0  0
  3  4  1  0  0  0  0
  4  5  1  0  0  0  0
  4 32  1  0  0  0  0
  6 10  1  0  0  0  0
  6 26  1  0  0  0  0
  6 42  1  0  0  0  0
  7  8  1  0  0  0  0
  7  9  2  0  0  0  0
  7 13  1  0  0  0  0
  8 43  1  0  0  0  0
  8 44  1  0  0  0  0
  8 45  1  0  0  0  0
 10 46  1  0  0  0  0
 10 47  1  0  0  0  0
 10 48  1  0  0  0  0
 11 27  1  0  0  0  0
 11 49  1  0  0  0  0
 12 26  2  0  0  0  0
 13 23  1  0  0  0  0
 13 50  1  0  0  0  0
 14 41  1  0  0  0  0
 15 24  1  0  0  0  0
 15 32  4  0  0  0  0
 15 34  4  0  0  0  0
 16 41  2  0  0  0  0
 17 18  1  0  0  0  0
 17 20  1  0  0  0  0
 17 51  1  0  0  0  0
 17 52  1  0  0  0  0
 18 23  1  0  0  0  0
 18 53  1  0  0  0  0
 18 54  1  0  0  0  0
 19 21  4  0  0  0  0
 19 29  1  0  0  0  0
 19 32  4  0  0  0  0
 20 24  1  0  0  0  0
 20 55  1  0  0  0  0
 20 56  1  0  0  0  0
 21 25  1  0  0  0  0
 21 34  4  0  0  0  0
 22 27  1  0  0  0  0
 22 28  1  0  0  0  0
 22 57  1  0  0  0  0
 22 58  1  0  0  0  0
 23 26  1  0  0  0  0
 23 59  1  0  0  0  0
 24 60  1  0  0  0  0
 24 61  1  0  0  0  0
 25 35  1  0  0  0  0
 25 62  1  0  0  0  0
 25 63  1  0  0  0  0
 27 31  1  0  0  0  0
 27 64  1  0  0  0  0
 28 30  1  0  0  0  0
 28 65  1  0  0  0  0
 28 66  1  0  0  0  0
 29 31  2  0  0  0  0
 29 67  1  0  0  0  0
 30 33  1  0  0  0  0
 30 68  1  0  0  0  0
 30 69  1  0  0  0  0
 31 70  1  0  0  0  0
 33 38  1  0  0  0  0
 33 71  1  0  0  0  0
 33 72  1  0  0  0  0
 35 36  2  0  0  0  0
 35 73  1  0  0  0  0
 36 37  1  0  0  0  0
 36 74  1  0  0  0  0
 37 39  1  0  0  0  0
 37 75  1  0  0  0  0
 37 76  1  0  0  0  0
 38 77  1  0  0  0  0
 38 78  1  0  0  0  0
 38 79  1  0  0  0  0
 39 40  1  0  0  0  0
 39 80  1  0  0  0  0
 39 81  1  0  0  0  0
 40 41  1  0  0  0  0
 40 82  1  0  0  0  0
 40 83  1  0  0  0  0
M  END
> <ConfClashScore>
0 

> <ConfOneFourInteractionScore>
-0.98023 

> <ConfScore>
0.341144 

> <ConfScorePBest>
0.00233705 

> <ConfTolerance>
2.60465 

$$$$
9548876
  PyMOL2.2          3D                             0

 83 83  0  0  0  0  0  0  0  0999 V2000
   -4.9976   -1.0355   -0.1408 H   0  0  0  1  0  0  0  0  0  0  0  0
   -2.3483    3.5486    0.4028 H   0  0  0  1  0  0  0  0  0  0  0  0
   -4.0871    3.6267    0.2518 H   0  0  0  1  0  0  0  0  0  0  0  0
   -3.1948    3.1878   -0.1432 C   0  0  0  1  0  0  0  0  0  0  0  0
   -3.0929    3.4528   -1.1748 H   0  0  0  1  0  0  0  0  0  0  0  0
   -4.2551    0.1313    4.6400 N   0  0  0  1  0  0  0  0  0  0  0  0
   -7.6346   -2.0827    3.8030 C   0  0  0  1  0  0  0  0  0  0  0  0
   -8.6568   -3.1674    3.5241 C   0  0  0  1  0  0  0  0  0  0  0  0
   -7.7350   -1.3479    4.7846 O   0  0  0  1  0  0  0  0  0  0  0  0
   -3.6750    0.2575    5.9686 C   0  0  0  1  0  0  0  0  0  0  0  0
    1.0736    3.3560    2.0838 O   0  0  0  1  0  0  0  0  0  0  0  0
   -5.1334   -1.9019    5.0658 O   0  0  0  1  0  0  0  0  0  0  0  0
   -6.6311   -1.9853    2.9166 N   0  0  0  1  0  0  0  0  0  0  0  0
    1.8628   -4.6633    4.4505 O   0  5  0  1  0  0  0  0  0  0  0  0
   -4.4519    1.0545   -0.2232 N   0  0  0  1  0  0  0  0  0  0  0  0
    1.4899   -3.5274    2.5000 O   0  0  0  1  0  0  0  0  0  0  0  0
   -6.9731    0.6570    1.4429 C   0  0  0  1  0  0  0  0  0  0  0  0
   -6.4299    0.4785    2.8475 C   0  0  0  1  0  0  0  0  0  0  0  0
   -2.3115    0.7539    0.2951 C   0  0  0  1  0  0  0  0  0  0  0  0
   -6.5316    1.9541    0.7867 C   0  0  0  1  0  0  0  0  0  0  0  0
   -2.9414   -0.4991    0.2763 C   0  0  0  1  0  0  0  0  0  0  0  0
    1.6133    0.9996    1.7938 C   0  0  0  1  0  0  0  0  0  0  0  0
   -5.7042   -0.8669    2.9832 C   0  0  0  1  0  0  0  0  0  0  0  0
   -5.7178    1.7425   -0.4786 C   0  0  0  1  0  0  0  0  0  0  0  0
   -2.2856   -1.8300    0.5592 C   0  0  0  1  0  0  0  0  0  0  0  0
   -4.9809   -0.9451    4.3244 C   0  0  0  1  0  0  0  0  0  0  0  0
    1.1540    2.2900    1.1426 C   0  0  0  1  0  0  0  0  0  0  0  0
    3.0670    1.0175    2.1967 C   0  0  0  1  0  0  0  0  0  0  0  0
   -0.9026    0.9990    0.5902 C   0  0  0  1  0  0  0  0  0  0  0  0
    3.6264   -0.3065    2.6830 C   0  0  0  1  0  0  0  0  0  0  0  0
   -0.1916    2.0989    0.5180 C   0  0  0  1  0  0  0  0  0  0  0  0
   -3.2730    1.7052   -0.0170 C   0  0  0  1  0  0  0  0  0  0  0  0
    3.8404   -1.2591    1.5215 C   0  0  0  1  0  0  0  0  0  0  0  0
   -4.2693   -0.2990   -0.0472 C   0  0  0  1  0  0  0  0  0  0  0  0
   -3.2344   -2.9746    0.3947 C   0  0  0  1  0  0  0  0  0  0  0  0
   -3.4573   -3.9298    1.2382 C   0  0  0  1  0  0  0  0  0  0  0  0
   -2.6655   -4.3469    2.4367 C   0  0  0  1  0  0  0  0  0  0  0  0
    4.5907   -0.6333    0.3609 C   0  0  0  1  0  0  0  0  0  0  0  0
   -1.1633   -4.1838    2.2456 C   0  0  0  1  0  0  0  0  0  0  0  0
   -0.3536   -4.5813    3.4690 C   0  0  0  1  0  0  0  0  0  0  0  0
    1.0884   -4.2084    3.4293 C   0  0  0  1  0  0  0  0  0  0  0  0
   -4.1131    0.8373    3.9753 H   0  0  0  1  0  0  0  0  0  0  0  0
   -8.4611   -4.0123    4.1508 H   0  0  0  1  0  0  0  0  0  0  0  0
   -8.5924   -3.4625    2.4976 H   0  0  0  1  0  0  0  0  0  0  0  0
   -9.6384   -2.7928    3.7271 H   0  0  0  1  0  0  0  0  0  0  0  0
   -3.3804    1.2727    6.1348 H   0  0  0  1  0  0  0  0  0  0  0  0
   -2.8185   -0.3792    6.0456 H   0  0  0  1  0  0  0  0  0  0  0  0
   -4.3994   -0.0281    6.7025 H   0  0  0  1  0  0  0  0  0  0  0  0
    1.4084    4.1621    1.6843 H   0  0  0  1  0  0  0  0  0  0  0  0
   -6.5231   -2.6693    2.2231 H   0  0  0  1  0  0  0  0  0  0  0  0
   -8.0421    0.6468    1.4886 H   0  0  0  1  0  0  0  0  0  0  0  0
   -6.6335   -0.1601    0.8414 H   0  0  0  1  0  0  0  0  0  0  0  0
   -7.2413    0.5113    3.5443 H   0  0  0  1  0  0  0  0  0  0  0  0
   -5.7432    1.2707    3.0615 H   0  0  0  1  0  0  0  0  0  0  0  0
   -5.9351    2.5021    1.4859 H   0  0  0  1  0  0  0  0  0  0  0  0
   -7.4034    2.5226    0.5383 H   0  0  0  1  0  0  0  0  0  0  0  0
    1.4630    0.1979    1.1013 H   0  0  0  1  0  0  0  0  0  0  0  0
    1.0208    0.8316    2.6688 H   0  0  0  1  0  0  0  0  0  0  0  0
   -4.9826   -0.9479    2.1972 H   0  0  0  1  0  0  0  0  0  0  0  0
   -6.2946    1.1562   -1.1631 H   0  0  0  1  0  0  0  0  0  0  0  0
   -5.5076    2.6967   -0.9146 H   0  0  0  1  0  0  0  0  0  0  0  0
   -1.9206   -1.8272    1.5651 H   0  0  0  1  0  0  0  0  0  0  0  0
   -1.4671   -1.9613   -0.1173 H   0  0  0  1  0  0  0  0  0  0  0  0
    1.8497    2.5443    0.3704 H   0  0  0  1  0  0  0  0  0  0  0  0
    3.1821    1.7329    2.9840 H   0  0  0  1  0  0  0  0  0  0  0  0
    3.6406    1.3256    1.3475 H   0  0  0  1  0  0  0  0  0  0  0  0
   -0.3750    0.1622    0.9111 H   0  0  0  1  0  0  0  0  0  0  0  0
    2.9378   -0.7455    3.3744 H   0  0  0  1  0  0  0  0  0  0  0  0
    4.5623   -0.1336    3.1720 H   0  0  0  1  0  0  0  0  0  0  0  0
   -0.5934    2.8977   -0.0131 H   0  0  0  1  0  0  0  0  0  0  0  0
    2.8840   -1.5861    1.1703 H   0  0  0  1  0  0  0  0  0  0  0  0
    4.3993   -2.1014    1.8721 H   0  0  0  1  0  0  0  0  0  0  0  0
   -3.7733   -3.0060   -0.4942 H   0  0  0  1  0  0  0  0  0  0  0  0
   -4.3139   -4.4907    1.0561 H   0  0  0  1  0  0  0  0  0  0  0  0
   -2.8731   -5.3766    2.6405 H   0  0  0  1  0  0  0  0  0  0  0  0
   -2.9696   -3.7494    3.2706 H   0  0  0  1  0  0  0  0  0  0  0  0
    5.5788   -0.3693    0.6752 H   0  0  0  1  0  0  0  0  0  0  0  0
    4.0739    0.2449    0.0345 H   0  0  0  1  0  0  0  0  0  0  0  0
    4.6485   -1.3342   -0.4455 H   0  0  0  1  0  0  0  0  0  0  0  0
   -0.9591   -3.1574    2.0225 H   0  0  0  1  0  0  0  0  0  0  0  0
   -0.8575   -4.7958    1.4229 H   0  0  0  1  0  0  0  0  0  0  0  0
   -0.4168   -5.6441    3.5756 H   0  0  0  1  0  0  0  0  0  0  0  0
   -0.7930   -4.1099    4.3232 H   0  0  0  1  0  0  0  0  0  0  0  0
  1 34  1  0  0  0  0
  2  4  1  0  0  0  0
  3  4  1  0  0  0  0
  4  5  1  0  0  0  0
  4 32  1  0  0  0  0
  6 10  1  0  0  0  0
  6 26  1  0  0  0  0
  6 42  1  0  0  0  0
  7  8  1  0  0  0  0
  7  9  2  0  0  0  0
  7 13  1  0  0  0  0
  8 43  1  0  0  0  0
  8 44  1  0  0  0  0
  8 45  1  0  0  0  0
 10 46  1  0  0  0  0
 10 47  1  0  0  0  0
 10 48  1  0  0  0  0
 11 27  1  0  0  0  0
 11 49  1  0  0  0  0
 12 26  2  0  0  0  0
 13 23  1  0  0  0  0
 13 50  1  0  0  0  0
 14 41  1  0  0  0  0
 15 24  1  0  0  0  0
 15 32  4  0  0  0  0
 15 34  4  0  0  0  0
 16 41  2  0  0  0  0
 17 18  1  0  0  0  0
 17 20  1  0  0  0  0
 17 51  1  0  0  0  0
 17 52  1  0  0  0  0
 18 23  1  0  0  0  0
 18 53  1  0  0  0  0
 18 54  1  0  0  0  0
 19 21  4  0  0  0  0
 19 29  1  0  0  0  0
 19 32  4  0  0  0  0
 20 24  1  0  0  0  0
 20 55  1  0  0  0  0
 20 56  1  0  0  0  0
 21 25  1  0  0  0  0
 21 34  4  0  0  0  0
 22 27  1  0  0  0  0
 22 28  1  0  0  0  0
 22 57  1  0  0  0  0
 22 58  1  0  0  0  0
 23 26  1  0  0  0  0
 23 59  1  0  0  0  0
 24 60  1  0  0  0  0
 24 61  1  0  0  0  0
 25 35  1  0  0  0  0
 25 62  1  0  0  0  0
 25 63  1  0  0  0  0
 27 31  1  0  0  0  0
 27 64  1  0  0  0  0
 28 30  1  0  0  0  0
 28 65  1  0  0  0  0
 28 66  1  0  0  0  0
 29 31  2  0  0  0  0
 29 67  1  0  0  0  0
 30 33  1  0  0  0  0
 30 68  1  0  0  0  0
 30 69  1  0  0  0  0
 31 70  1  0  0  0  0
 33 38  1  0  0  0  0
 33 71  1  0  0  0  0
 33 72  1  0  0  0  0
 35 36  2  0  0  0  0
 35 73  1  0  0  0  0
 36 37  1  0  0  0  0
 36 74  1  0  0  0  0
 37 39  1  0  0  0  0
 37 75  1  0  0  0  0
 37 76  1  0  0  0  0
 38 77  1  0  0  0  0
 38 78  1  0  0  0  0
 38 79  1  0  0  0  0
 39 40  1  0  0  0  0
 39 80  1  0  0  0  0
 39 81  1  0  0  0  0
 40 41  1  0  0  0  0
 40 82  1  0  0  0  0
 40 83  1  0  0  0  0
M  END
> <ConfClashScore>
0 

> <ConfOneFourInteractionScore>
-0.990602 

> <ConfScore>
0.34725 

> <ConfScorePBest>
0.00230857 

> <ConfTolerance>
2.92021 

$$$$
9548876
  PyMOL2.2          3D                             0

 83 83  0  0  0  0  0  0  0  0999 V2000
   -5.0025   -1.0157   -0.1163 H   0  0  0  1  0  0  0  0  0  0  0  0
   -2.2499    3.4766   -0.5647 H   0  0  0  1  0  0  0  0  0  0  0  0
   -3.2861    3.6496    0.8313 H   0  0  0  1  0  0  0  0  0  0  0  0
   -3.1922    3.2043   -0.1371 C   0  0  0  1  0  0  0  0  0  0  0  0
   -3.9835    3.5513   -0.7681 H   0  0  0  1  0  0  0  0  0  0  0  0
   -8.9772   -2.5267   -4.0662 N   0  0  0  1  0  0  0  0  0  0  0  0
   -9.4683   -3.8932   -1.2779 C   0  0  0  1  0  0  0  0  0  0  0  0
   -9.5333   -5.3754   -0.9652 C   0  0  0  1  0  0  0  0  0  0  0  0
  -10.4846   -3.2045   -1.3156 O   0  0  0  1  0  0  0  0  0  0  0  0
   -9.6508   -2.3046   -5.3369 C   0  0  0  1  0  0  0  0  0  0  0  0
    1.9500    0.9187    0.5169 O   0  0  0  1  0  0  0  0  0  0  0  0
   -9.3748   -0.5173   -3.1577 O   0  0  0  1  0  0  0  0  0  0  0  0
   -8.2472   -3.4010   -1.5053 N   0  0  0  1  0  0  0  0  0  0  0  0
    4.8794   -2.1618   -1.4918 O   0  5  0  1  0  0  0  0  0  0  0  0
   -4.4540    1.0734   -0.2034 N   0  0  0  1  0  0  0  0  0  0  0  0
    4.4950   -0.1087   -0.5907 O   0  0  0  1  0  0  0  0  0  0  0  0
   -6.2999   -0.1620   -2.2111 C   0  0  0  1  0  0  0  0  0  0  0  0
   -6.5419   -1.6488   -2.0006 C   0  0  0  1  0  0  0  0  0  0  0  0
   -2.3079    0.7683    0.2879 C   0  0  0  1  0  0  0  0  0  0  0  0
   -6.7608    0.6344   -1.0038 C   0  0  0  1  0  0  0  0  0  0  0  0
   -2.9403   -0.4835    0.2758 C   0  0  0  1  0  0  0  0  0  0  0  0
    1.8642    0.5786    2.8247 C   0  0  0  1  0  0  0  0  0  0  0  0
   -8.0258   -2.0111   -1.8754 C   0  0  0  1  0  0  0  0  0  0  0  0
   -5.7476    1.6678   -0.5416 C   0  0  0  1  0  0  0  0  0  0  0  0
   -2.2835   -1.8159    0.5492 C   0  0  0  1  0  0  0  0  0  0  0  0
   -8.8297   -1.6076   -3.1078 C   0  0  0  1  0  0  0  0  0  0  0  0
    1.3231    0.0898    1.4779 C   0  0  0  1  0  0  0  0  0  0  0  0
    3.3630    0.3837    2.9782 C   0  0  0  1  0  0  0  0  0  0  0  0
   -0.8830    0.8898    0.5802 C   0  0  0  1  0  0  0  0  0  0  0  0
    3.8294    0.8546    4.3423 C   0  0  0  1  0  0  0  0  0  0  0  0
   -0.1690    0.1690    1.4080 C   0  0  0  1  0  0  0  0  0  0  0  0
   -3.2715    1.7217   -0.0114 C   0  0  0  1  0  0  0  0  0  0  0  0
    5.2662    0.4711    4.6529 C   0  0  0  1  0  0  0  0  0  0  0  0
   -4.2717   -0.2806   -0.0311 C   0  0  0  1  0  0  0  0  0  0  0  0
   -1.6446   -2.4512   -0.6447 C   0  0  0  1  0  0  0  0  0  0  0  0
   -0.4602   -2.8719   -0.6879 C   0  0  0  1  0  0  0  0  0  0  0  0
    0.7690   -2.6893    0.1674 C   0  0  0  1  0  0  0  0  0  0  0  0
    6.2015    0.9642    3.5651 C   0  0  0  1  0  0  0  0  0  0  0  0
    1.8246   -1.8764   -0.5708 C   0  0  0  1  0  0  0  0  0  0  0  0
    3.1711   -1.9825    0.1263 C   0  0  0  1  0  0  0  0  0  0  0  0
    4.2313   -1.2975   -0.6655 C   0  0  0  1  0  0  0  0  0  0  0  0
   -8.6037   -3.4175   -3.9010 H   0  0  0  1  0  0  0  0  0  0  0  0
   -9.3699   -5.5271    0.0814 H   0  0  0  1  0  0  0  0  0  0  0  0
   -8.7788   -5.8907   -1.5221 H   0  0  0  1  0  0  0  0  0  0  0  0
  -10.4971   -5.7545   -1.2340 H   0  0  0  1  0  0  0  0  0  0  0  0
   -9.9748   -3.2422   -5.7381 H   0  0  0  1  0  0  0  0  0  0  0  0
   -8.9742   -1.8384   -6.0223 H   0  0  0  1  0  0  0  0  0  0  0  0
  -10.4988   -1.6700   -5.1847 H   0  0  0  1  0  0  0  0  0  0  0  0
    1.8688    1.8371    0.7842 H   0  0  0  1  0  0  0  0  0  0  0  0
   -7.4737   -3.9966   -1.4198 H   0  0  0  1  0  0  0  0  0  0  0  0
   -6.8428    0.1631   -3.0740 H   0  0  0  1  0  0  0  0  0  0  0  0
   -5.2540    0.0051   -2.3633 H   0  0  0  1  0  0  0  0  0  0  0  0
   -6.0422   -1.9501   -1.1037 H   0  0  0  1  0  0  0  0  0  0  0  0
   -6.1319   -2.1806   -2.8337 H   0  0  0  1  0  0  0  0  0  0  0  0
   -6.9433   -0.0457   -0.1983 H   0  0  0  1  0  0  0  0  0  0  0  0
   -7.6692    1.1397   -1.2574 H   0  0  0  1  0  0  0  0  0  0  0  0
    1.3701    0.0383    3.6051 H   0  0  0  1  0  0  0  0  0  0  0  0
    1.6463    1.6219    2.9194 H   0  0  0  1  0  0  0  0  0  0  0  0
   -8.4043   -1.4153   -1.0712 H   0  0  0  1  0  0  0  0  0  0  0  0
   -5.6028    2.3808   -1.3262 H   0  0  0  1  0  0  0  0  0  0  0  0
   -6.1341    2.1633    0.3244 H   0  0  0  1  0  0  0  0  0  0  0  0
   -3.0295   -2.4850    0.9242 H   0  0  0  1  0  0  0  0  0  0  0  0
   -1.5286   -1.6694    1.2933 H   0  0  0  1  0  0  0  0  0  0  0  0
    1.6216   -0.9282    1.3390 H   0  0  0  1  0  0  0  0  0  0  0  0
    3.8691    0.9455    2.2212 H   0  0  0  1  0  0  0  0  0  0  0  0
    3.5949   -0.6549    2.8673 H   0  0  0  1  0  0  0  0  0  0  0  0
   -0.3735    1.6390    0.0695 H   0  0  0  1  0  0  0  0  0  0  0  0
    3.1942    0.4211    5.0863 H   0  0  0  1  0  0  0  0  0  0  0  0
    3.7471    1.9207    4.3796 H   0  0  0  1  0  0  0  0  0  0  0  0
   -0.6965   -0.4113    2.0910 H   0  0  0  1  0  0  0  0  0  0  0  0
    5.3381   -0.5943    4.7211 H   0  0  0  1  0  0  0  0  0  0  0  0
    5.5522    0.9089    5.5865 H   0  0  0  1  0  0  0  0  0  0  0  0
   -2.2229   -2.5527   -1.5030 H   0  0  0  1  0  0  0  0  0  0  0  0
   -0.2877   -3.4913   -1.5053 H   0  0  0  1  0  0  0  0  0  0  0  0
    1.1728   -3.6498    0.4109 H   0  0  0  1  0  0  0  0  0  0  0  0
    0.4977   -2.1774    1.0669 H   0  0  0  1  0  0  0  0  0  0  0  0
    7.2149    0.8679    3.8946 H   0  0  0  1  0  0  0  0  0  0  0  0
    5.9917    1.9919    3.3535 H   0  0  0  1  0  0  0  0  0  0  0  0
    6.0576    0.3807    2.6798 H   0  0  0  1  0  0  0  0  0  0  0  0
    1.5226   -0.8502   -0.5964 H   0  0  0  1  0  0  0  0  0  0  0  0
    1.9169   -2.2466   -1.5704 H   0  0  0  1  0  0  0  0  0  0  0  0
    3.4283   -3.0151    0.2374 H   0  0  0  1  0  0  0  0  0  0  0  0
    3.1036   -1.5254    1.0914 H   0  0  0  1  0  0  0  0  0  0  0  0
  1 34  1  0  0  0  0
  2  4  1  0  0  0  0
  3  4  1  0  0  0  0
  4  5  1  0  0  0  0
  4 32  1  0  0  0  0
  6 10  1  0  0  0  0
  6 26  1  0  0  0  0
  6 42  1  0  0  0  0
  7  8  1  0  0  0  0
  7  9  2  0  0  0  0
  7 13  1  0  0  0  0
  8 43  1  0  0  0  0
  8 44  1  0  0  0  0
  8 45  1  0  0  0  0
 10 46  1  0  0  0  0
 10 47  1  0  0  0  0
 10 48  1  0  0  0  0
 11 27  1  0  0  0  0
 11 49  1  0  0  0  0
 12 26  2  0  0  0  0
 13 23  1  0  0  0  0
 13 50  1  0  0  0  0
 14 41  1  0  0  0  0
 15 24  1  0  0  0  0
 15 32  4  0  0  0  0
 15 34  4  0  0  0  0
 16 41  2  0  0  0  0
 17 18  1  0  0  0  0
 17 20  1  0  0  0  0
 17 51  1  0  0  0  0
 17 52  1  0  0  0  0
 18 23  1  0  0  0  0
 18 53  1  0  0  0  0
 18 54  1  0  0  0  0
 19 21  4  0  0  0  0
 19 29  1  0  0  0  0
 19 32  4  0  0  0  0
 20 24  1  0  0  0  0
 20 55  1  0  0  0  0
 20 56  1  0  0  0  0
 21 25  1  0  0  0  0
 21 34  4  0  0  0  0
 22 27  1  0  0  0  0
 22 28  1  0  0  0  0
 22 57  1  0  0  0  0
 22 58  1  0  0  0  0
 23 26  1  0  0  0  0
 23 59  1  0  0  0  0
 24 60  1  0  0  0  0
 24 61  1  0  0  0  0
 25 35  1  0  0  0  0
 25 62  1  0  0  0  0
 25 63  1  0  0  0  0
 27 31  1  0  0  0  0
 27 64  1  0  0  0  0
 28 30  1  0  0  0  0
 28 65  1  0  0  0  0
 28 66  1  0  0  0  0
 29 31  2  0  0  0  0
 29 67  1  0  0  0  0
 30 33  1  0  0  0  0
 30 68  1  0  0  0  0
 30 69  1  0  0  0  0
 31 70  1  0  0  0  0
 33 38  1  0  0  0  0
 33 71  1  0  0  0  0
 33 72  1  0  0  0  0
 35 36  2  0  0  0  0
 35 73  1  0  0  0  0
 36 37  1  0  0  0  0
 36 74  1  0  0  0  0
 37 39  1  0  0  0  0
 37 75  1  0  0  0  0
 37 76  1  0  0  0  0
 38 77  1  0  0  0  0
 38 78  1  0  0  0  0
 38 79  1  0  0  0  0
 39 40  1  0  0  0  0
 39 80  1  0  0  0  0
 39 81  1  0  0  0  0
 40 41  1  0  0  0  0
 40 82  1  0  0  0  0
 40 83  1  0  0  0  0
M  END
> <ConfClashScore>
0.00300237 

> <ConfOneFourInteractionScore>
-0.98891 

> <ConfScore>
0.352571 

> <ConfScorePBest>
0.00228009 

> <ConfTolerance>
2.73652 

$$$$
9548876
  PyMOL2.2          3D                             0

 83 83  0  0  0  0  0  0  0  0999 V2000
   -5.0082   -1.0503   -0.1110 H   0  0  0  1  0  0  0  0  0  0  0  0
   -2.6748    3.5662    0.7312 H   0  0  0  1  0  0  0  0  0  0  0  0
   -4.1490    3.6115   -0.2055 H   0  0  0  1  0  0  0  0  0  0  0  0
   -3.1732    3.1786   -0.1327 C   0  0  0  1  0  0  0  0  0  0  0  0
   -2.6085    3.4211   -1.0087 H   0  0  0  1  0  0  0  0  0  0  0  0
   -4.2179    6.1650   -4.1583 N   0  0  0  1  0  0  0  0  0  0  0  0
   -1.9616    2.3385   -5.6579 C   0  0  0  1  0  0  0  0  0  0  0  0
   -0.6488    1.5901   -5.5330 C   0  0  0  1  0  0  0  0  0  0  0  0
   -2.6313    2.2703   -6.6877 O   0  0  0  1  0  0  0  0  0  0  0  0
   -4.4244    7.3044   -3.2769 C   0  0  0  1  0  0  0  0  0  0  0  0
    2.4466    0.6168   -0.2386 O   0  0  0  1  0  0  0  0  0  0  0  0
   -2.7372    5.1377   -2.8266 O   0  0  0  1  0  0  0  0  0  0  0  0
   -2.3696    3.0759   -4.6129 N   0  0  0  1  0  0  0  0  0  0  0  0
   -4.1447   -4.1550   -4.7358 O   0  5  0  1  0  0  0  0  0  0  0  0
   -4.4731    1.0420   -0.2039 N   0  0  0  1  0  0  0  0  0  0  0  0
   -3.9785   -3.0818   -2.7483 O   0  0  0  1  0  0  0  0  0  0  0  0
   -4.6430    2.7485   -2.6025 C   0  0  0  1  0  0  0  0  0  0  0  0
   -4.7595    3.0174   -4.0824 C   0  0  0  1  0  0  0  0  0  0  0  0
   -2.3246    0.7516    0.2862 C   0  0  0  1  0  0  0  0  0  0  0  0
   -5.8085    1.9517   -2.0416 C   0  0  0  1  0  0  0  0  0  0  0  0
   -2.9491   -0.5041    0.2777 C   0  0  0  1  0  0  0  0  0  0  0  0
    1.7566    2.5687   -1.3403 C   0  0  0  1  0  0  0  0  0  0  0  0
   -3.5995    3.8511   -4.6423 C   0  0  0  1  0  0  0  0  0  0  0  0
   -5.7197    1.7297   -0.5413 C   0  0  0  1  0  0  0  0  0  0  0  0
   -2.2817   -1.8356    0.5547 C   0  0  0  1  0  0  0  0  0  0  0  0
   -3.4575    5.1227   -3.8112 C   0  0  0  1  0  0  0  0  0  0  0  0
    1.4131    1.5997   -0.1991 C   0  0  0  1  0  0  0  0  0  0  0  0
    0.7266    3.6828   -1.3488 C   0  0  0  1  0  0  0  0  0  0  0  0
   -0.9354    1.1089    0.5468 C   0  0  0  1  0  0  0  0  0  0  0  0
    1.0210    4.7684   -2.3726 C   0  0  0  1  0  0  0  0  0  0  0  0
    0.0568    0.9767   -0.2975 C   0  0  0  1  0  0  0  0  0  0  0  0
   -3.2945    1.6982   -0.0145 C   0  0  0  1  0  0  0  0  0  0  0  0
   -0.0637    5.8301   -2.4539 C   0  0  0  1  0  0  0  0  0  0  0  0
   -4.2821   -0.3104   -0.0283 C   0  0  0  1  0  0  0  0  0  0  0  0
   -1.1228   -2.1465   -0.3348 C   0  0  0  1  0  0  0  0  0  0  0  0
   -1.0615   -1.7759   -1.5915 C   0  0  0  1  0  0  0  0  0  0  0  0
   -2.1306   -1.0704   -2.3823 C   0  0  0  1  0  0  0  0  0  0  0  0
   -0.4078    6.2320   -3.8789 C   0  0  0  1  0  0  0  0  0  0  0  0
   -2.0263   -1.3158   -3.8672 C   0  0  0  1  0  0  0  0  0  0  0  0
   -2.2240   -2.7571   -4.3076 C   0  0  0  1  0  0  0  0  0  0  0  0
   -3.5188   -3.3349   -3.8496 C   0  0  0  1  0  0  0  0  0  0  0  0
   -4.6516    6.1621   -5.0371 H   0  0  0  1  0  0  0  0  0  0  0  0
   -0.4337    1.0900   -6.4541 H   0  0  0  1  0  0  0  0  0  0  0  0
   -0.7227    0.8699   -4.7452 H   0  0  0  1  0  0  0  0  0  0  0  0
    0.1365    2.2824   -5.3115 H   0  0  0  1  0  0  0  0  0  0  0  0
   -5.3988    7.2452   -2.8389 H   0  0  0  1  0  0  0  0  0  0  0  0
   -4.3412    8.2104   -3.8401 H   0  0  0  1  0  0  0  0  0  0  0  0
   -3.6849    7.2955   -2.5036 H   0  0  0  1  0  0  0  0  0  0  0  0
    2.0705   -0.2344   -0.4745 H   0  0  0  1  0  0  0  0  0  0  0  0
   -1.8195    3.0923   -3.8021 H   0  0  0  1  0  0  0  0  0  0  0  0
   -4.5954    3.6865   -2.0900 H   0  0  0  1  0  0  0  0  0  0  0  0
   -3.7413    2.1996   -2.4274 H   0  0  0  1  0  0  0  0  0  0  0  0
   -5.6733    3.5448   -4.2605 H   0  0  0  1  0  0  0  0  0  0  0  0
   -4.7824    2.0794   -4.5969 H   0  0  0  1  0  0  0  0  0  0  0  0
   -5.8309    0.9973   -2.5250 H   0  0  0  1  0  0  0  0  0  0  0  0
   -6.7142    2.4806   -2.2533 H   0  0  0  1  0  0  0  0  0  0  0  0
    1.7339    2.0485   -2.2751 H   0  0  0  1  0  0  0  0  0  0  0  0
    2.7321    2.9797   -1.1839 H   0  0  0  1  0  0  0  0  0  0  0  0
   -3.8301    4.1236   -5.6510 H   0  0  0  1  0  0  0  0  0  0  0  0
   -5.7474    2.6758   -0.0422 H   0  0  0  1  0  0  0  0  0  0  0  0
   -6.5492    1.1335   -0.2229 H   0  0  0  1  0  0  0  0  0  0  0  0
   -3.0128   -2.6072    0.4323 H   0  0  0  1  0  0  0  0  0  0  0  0
   -1.9337   -1.8304    1.5665 H   0  0  0  1  0  0  0  0  0  0  0  0
    1.4702    2.1402    0.7226 H   0  0  0  1  0  0  0  0  0  0  0  0
    0.7028    4.1302   -0.3772 H   0  0  0  1  0  0  0  0  0  0  0  0
   -0.2304    3.2583   -1.5701 H   0  0  0  1  0  0  0  0  0  0  0  0
   -0.7133    1.5024    1.4835 H   0  0  0  1  0  0  0  0  0  0  0  0
    1.1198    4.3099   -3.3343 H   0  0  0  1  0  0  0  0  0  0  0  0
    1.9421    5.2440   -2.1073 H   0  0  0  1  0  0  0  0  0  0  0  0
   -0.1171    0.3732   -1.1264 H   0  0  0  1  0  0  0  0  0  0  0  0
    0.2722    6.6992   -1.9280 H   0  0  0  1  0  0  0  0  0  0  0  0
   -0.9473    5.4488   -1.9862 H   0  0  0  1  0  0  0  0  0  0  0  0
   -0.3253   -2.6834    0.0618 H   0  0  0  1  0  0  0  0  0  0  0  0
   -0.1786   -1.9930   -2.0964 H   0  0  0  1  0  0  0  0  0  0  0  0
   -2.0476   -0.0185   -2.2043 H   0  0  0  1  0  0  0  0  0  0  0  0
   -3.0862   -1.4152   -2.0464 H   0  0  0  1  0  0  0  0  0  0  0  0
   -1.1587    6.9941   -3.8636 H   0  0  0  1  0  0  0  0  0  0  0  0
   -0.7758    5.3796   -4.4107 H   0  0  0  1  0  0  0  0  0  0  0  0
    0.4690    6.6054   -4.3655 H   0  0  0  1  0  0  0  0  0  0  0  0
   -1.0531   -1.0046   -4.1851 H   0  0  0  1  0  0  0  0  0  0  0  0
   -2.7689   -0.7179   -4.3530 H   0  0  0  1  0  0  0  0  0  0  0  0
   -1.4268   -3.3479   -3.9074 H   0  0  0  1  0  0  0  0  0  0  0  0
   -2.1939   -2.7937   -5.3766 H   0  0  0  1  0  0  0  0  0  0  0  0
  1 34  1  0  0  0  0
  2  4  1  0  0  0  0
  3  4  1  0  0  0  0
  4  5  1  0  0  0  0
  4 32  1  0  0  0  0
  6 10  1  0  0  0  0
  6 26  1  0  0  0  0
  6 42  1  0  0  0  0
  7  8  1  0  0  0  0
  7  9  2  0  0  0  0
  7 13  1  0  0  0  0
  8 43  1  0  0  0  0
  8 44  1  0  0  0  0
  8 45  1  0  0  0  0
 10 46  1  0  0  0  0
 10 47  1  0  0  0  0
 10 48  1  0  0  0  0
 11 27  1  0  0  0  0
 11 49  1  0  0  0  0
 12 26  2  0  0  0  0
 13 23  1  0  0  0  0
 13 50  1  0  0  0  0
 14 41  1  0  0  0  0
 15 24  1  0  0  0  0
 15 32  4  0  0  0  0
 15 34  4  0  0  0  0
 16 41  2  0  0  0  0
 17 18  1  0  0  0  0
 17 20  1  0  0  0  0
 17 51  1  0  0  0  0
 17 52  1  0  0  0  0
 18 23  1  0  0  0  0
 18 53  1  0  0  0  0
 18 54  1  0  0  0  0
 19 21  4  0  0  0  0
 19 29  1  0  0  0  0
 19 32  4  0  0  0  0
 20 24  1  0  0  0  0
 20 55  1  0  0  0  0
 20 56  1  0  0  0  0
 21 25  1  0  0  0  0
 21 34  4  0  0  0  0
 22 27  1  0  0  0  0
 22 28  1  0  0  0  0
 22 57  1  0  0  0  0
 22 58  1  0  0  0  0
 23 26  1  0  0  0  0
 23 59  1  0  0  0  0
 24 60  1  0  0  0  0
 24 61  1  0  0  0  0
 25 35  1  0  0  0  0
 25 62  1  0  0  0  0
 25 63  1  0  0  0  0
 27 31  1  0  0  0  0
 27 64  1  0  0  0  0
 28 30  1  0  0  0  0
 28 65  1  0  0  0  0
 28 66  1  0  0  0  0
 29 31  2  0  0  0  0
 29 67  1  0  0  0  0
 30 33  1  0  0  0  0
 30 68  1  0  0  0  0
 30 69  1  0  0  0  0
 31 70  1  0  0  0  0
 33 38  1  0  0  0  0
 33 71  1  0  0  0  0
 33 72  1  0  0  0  0
 35 36  2  0  0  0  0
 35 73  1  0  0  0  0
 36 37  1  0  0  0  0
 36 74  1  0  0  0  0
 37 39  1  0  0  0  0
 37 75  1  0  0  0  0
 37 76  1  0  0  0  0
 38 77  1  0  0  0  0
 38 78  1  0  0  0  0
 38 79  1  0  0  0  0
 39 40  1  0  0  0  0
 39 80  1  0  0  0  0
 39 81  1  0  0  0  0
 40 41  1  0  0  0  0
 40 82  1  0  0  0  0
 40 83  1  0  0  0  0
M  END
> <ConfClashScore>
0 

> <ConfOneFourInteractionScore>
-0.988588 

> <ConfScore>
0.352751 

> <ConfScorePBest>
0.00225161 

> <ConfTolerance>
3.44585 

$$$$
9548876
  PyMOL2.2          3D                             0

 83 83  0  0  0  0  0  0  0  0999 V2000
   -4.9907   -1.0352   -0.1057 H   0  0  0  1  0  0  0  0  0  0  0  0
   -3.4594    3.6605    0.7869 H   0  0  0  1  0  0  0  0  0  0  0  0
   -3.8267    3.5476   -0.9174 H   0  0  0  1  0  0  0  0  0  0  0  0
   -3.1785    3.2034   -0.1388 C   0  0  0  1  0  0  0  0  0  0  0  0
   -2.1679    3.4654   -0.3735 H   0  0  0  1  0  0  0  0  0  0  0  0
   -4.3126    3.2872   -7.3420 N   0  0  0  1  0  0  0  0  0  0  0  0
   -2.3949    4.1933   -3.9493 C   0  0  0  1  0  0  0  0  0  0  0  0
   -1.8957    5.6228   -3.8675 C   0  0  0  1  0  0  0  0  0  0  0  0
   -1.9969    3.3397   -3.1578 O   0  0  0  1  0  0  0  0  0  0  0  0
   -4.4465    3.2669   -8.7909 C   0  0  0  1  0  0  0  0  0  0  0  0
    1.1350    2.4943    2.5335 O   0  0  0  1  0  0  0  0  0  0  0  0
   -3.7833    1.1162   -7.0367 O   0  0  0  1  0  0  0  0  0  0  0  0
   -3.2823    3.8887   -4.9095 N   0  0  0  1  0  0  0  0  0  0  0  0
    1.6683   -3.7265    5.1587 O   0  5  0  1  0  0  0  0  0  0  0  0
   -4.4668    1.0596   -0.2040 N   0  0  0  1  0  0  0  0  0  0  0  0
    2.8510   -3.4588    3.2341 O   0  0  0  1  0  0  0  0  0  0  0  0
   -4.8191    2.3212   -2.7864 C   0  0  0  1  0  0  0  0  0  0  0  0
   -5.0431    2.2498   -4.2918 C   0  0  0  1  0  0  0  0  0  0  0  0
   -2.3166    0.7821    0.2855 C   0  0  0  1  0  0  0  0  0  0  0  0
   -5.9911    1.7302   -2.0428 C   0  0  0  1  0  0  0  0  0  0  0  0
   -2.9342   -0.4770    0.2805 C   0  0  0  1  0  0  0  0  0  0  0  0
    1.7748    0.2634    3.0717 C   0  0  0  1  0  0  0  0  0  0  0  0
   -3.7791    2.5353   -5.1079 C   0  0  0  1  0  0  0  0  0  0  0  0
   -5.7678    1.6372   -0.5430 C   0  0  0  1  0  0  0  0  0  0  0  0
   -2.3068   -1.8489    0.5547 C   0  0  0  1  0  0  0  0  0  0  0  0
   -3.9843    2.2333   -6.5893 C   0  0  0  1  0  0  0  0  0  0  0  0
    1.1494    1.1750    2.0106 C   0  0  0  1  0  0  0  0  0  0  0  0
    3.1289    0.7067    3.5987 C   0  0  0  1  0  0  0  0  0  0  0  0
   -0.8983    0.9810    0.5677 C   0  0  0  1  0  0  0  0  0  0  0  0
    3.6191   -0.2359    4.6831 C   0  0  0  1  0  0  0  0  0  0  0  0
   -0.2150    0.6835    1.6445 C   0  0  0  1  0  0  0  0  0  0  0  0
   -3.2917    1.7227   -0.0169 C   0  0  0  1  0  0  0  0  0  0  0  0
    5.0030    0.1510    5.1424 C   0  0  0  1  0  0  0  0  0  0  0  0
   -4.2684   -0.2912   -0.0253 C   0  0  0  1  0  0  0  0  0  0  0  0
   -0.8403   -1.8591    0.2973 C   0  0  0  1  0  0  0  0  0  0  0  0
   -0.0063   -2.4114    1.1424 C   0  0  0  1  0  0  0  0  0  0  0  0
   -0.3432   -3.3453    2.2612 C   0  0  0  1  0  0  0  0  0  0  0  0
    6.1113   -0.5221    4.3493 C   0  0  0  1  0  0  0  0  0  0  0  0
    0.3125   -4.7089    2.1166 C   0  0  0  1  0  0  0  0  0  0  0  0
    1.1189   -5.1222    3.3369 C   0  0  0  1  0  0  0  0  0  0  0  0
    1.9767   -4.0258    3.8683 C   0  0  0  1  0  0  0  0  0  0  0  0
   -4.4755    4.1380   -6.8838 H   0  0  0  1  0  0  0  0  0  0  0  0
   -2.4851    6.1670   -3.1594 H   0  0  0  1  0  0  0  0  0  0  0  0
   -1.9777    6.0845   -4.8292 H   0  0  0  1  0  0  0  0  0  0  0  0
   -0.8720    5.6255   -3.5561 H   0  0  0  1  0  0  0  0  0  0  0  0
   -3.4954    3.4631   -9.2403 H   0  0  0  1  0  0  0  0  0  0  0  0
   -5.1459    4.0175   -9.0948 H   0  0  0  1  0  0  0  0  0  0  0  0
   -4.7966    2.3052   -9.1031 H   0  0  0  1  0  0  0  0  0  0  0  0
    0.9095    2.4669    3.4662 H   0  0  0  1  0  0  0  0  0  0  0  0
   -3.6069    4.6026   -5.4972 H   0  0  0  1  0  0  0  0  0  0  0  0
   -4.7003    3.3446   -2.4976 H   0  0  0  1  0  0  0  0  0  0  0  0
   -3.9337    1.7746   -2.5371 H   0  0  0  1  0  0  0  0  0  0  0  0
   -5.7887    2.9694   -4.5584 H   0  0  0  1  0  0  0  0  0  0  0  0
   -5.3905    1.2679   -4.5369 H   0  0  0  1  0  0  0  0  0  0  0  0
   -6.1709    0.7454   -2.4207 H   0  0  0  1  0  0  0  0  0  0  0  0
   -6.8498    2.3433   -2.2206 H   0  0  0  1  0  0  0  0  0  0  0  0
    1.8906   -0.7101    2.6431 H   0  0  0  1  0  0  0  0  0  0  0  0
    1.0998    0.2109    3.9003 H   0  0  0  1  0  0  0  0  0  0  0  0
   -3.0272    1.8600   -4.7565 H   0  0  0  1  0  0  0  0  0  0  0  0
   -5.8253    2.6210   -0.1262 H   0  0  0  1  0  0  0  0  0  0  0  0
   -6.5359    1.0244   -0.1193 H   0  0  0  1  0  0  0  0  0  0  0  0
   -2.7727   -2.5736   -0.0798 H   0  0  0  1  0  0  0  0  0  0  0  0
   -2.4785   -2.1076    1.5786 H   0  0  0  1  0  0  0  0  0  0  0  0
    1.7655    1.1408    1.1364 H   0  0  0  1  0  0  0  0  0  0  0  0
    3.0419    1.6930    4.0043 H   0  0  0  1  0  0  0  0  0  0  0  0
    3.8339    0.7124    2.7939 H   0  0  0  1  0  0  0  0  0  0  0  0
   -0.3507    1.4234   -0.1978 H   0  0  0  1  0  0  0  0  0  0  0  0
    3.6439   -1.2332    4.2961 H   0  0  0  1  0  0  0  0  0  0  0  0
    2.9481   -0.1923    5.5154 H   0  0  0  1  0  0  0  0  0  0  0  0
   -0.6705    0.0352    2.3182 H   0  0  0  1  0  0  0  0  0  0  0  0
    5.1078   -0.1228    6.1715 H   0  0  0  1  0  0  0  0  0  0  0  0
    5.1097    1.2109    5.0422 H   0  0  0  1  0  0  0  0  0  0  0  0
   -0.4714   -1.4192   -0.5699 H   0  0  0  1  0  0  0  0  0  0  0  0
    0.9994   -2.1752    1.0226 H   0  0  0  1  0  0  0  0  0  0  0  0
   -1.4046   -3.4786    2.2855 H   0  0  0  1  0  0  0  0  0  0  0  0
   -0.0172   -2.9064    3.1810 H   0  0  0  1  0  0  0  0  0  0  0  0
    5.6897   -1.0319    3.5083 H   0  0  0  1  0  0  0  0  0  0  0  0
    6.6199   -1.2260    4.9744 H   0  0  0  1  0  0  0  0  0  0  0  0
    6.8044    0.2177    4.0069 H   0  0  0  1  0  0  0  0  0  0  0  0
    0.9669   -4.6826    1.2704 H   0  0  0  1  0  0  0  0  0  0  0  0
   -0.4534   -5.4380    1.9532 H   0  0  0  1  0  0  0  0  0  0  0  0
    1.7468   -5.9456    3.0673 H   0  0  0  1  0  0  0  0  0  0  0  0
    0.4406   -5.4272    4.1061 H   0  0  0  1  0  0  0  0  0  0  0  0
  1 34  1  0  0  0  0
  2  4  1  0  0  0  0
  3  4  1  0  0  0  0
  4  5  1  0  0  0  0
  4 32  1  0  0  0  0
  6 10  1  0  0  0  0
  6 26  1  0  0  0  0
  6 42  1  0  0  0  0
  7  8  1  0  0  0  0
  7  9  2  0  0  0  0
  7 13  1  0  0  0  0
  8 43  1  0  0  0  0
  8 44  1  0  0  0  0
  8 45  1  0  0  0  0
 10 46  1  0  0  0  0
 10 47  1  0  0  0  0
 10 48  1  0  0  0  0
 11 27  1  0  0  0  0
 11 49  1  0  0  0  0
 12 26  2  0  0  0  0
 13 23  1  0  0  0  0
 13 50  1  0  0  0  0
 14 41  1  0  0  0  0
 15 24  1  0  0  0  0
 15 32  4  0  0  0  0
 15 34  4  0  0  0  0
 16 41  2  0  0  0  0
 17 18  1  0  0  0  0
 17 20  1  0  0  0  0
 17 51  1  0  0  0  0
 17 52  1  0  0  0  0
 18 23  1  0  0  0  0
 18 53  1  0  0  0  0
 18 54  1  0  0  0  0
 19 21  4  0  0  0  0
 19 29  1  0  0  0  0
 19 32  4  0  0  0  0
 20 24  1  0  0  0  0
 20 55  1  0  0  0  0
 20 56  1  0  0  0  0
 21 25  1  0  0  0  0
 21 34  4  0  0  0  0
 22 27  1  0  0  0  0
 22 28  1  0  0  0  0
 22 57  1  0  0  0  0
 22 58  1  0  0  0  0
 23 26  1  0  0  0  0
 23 59  1  0  0  0  0
 24 60  1  0  0  0  0
 24 61  1  0  0  0  0
 25 35  1  0  0  0  0
 25 62  1  0  0  0  0
 25 63  1  0  0  0  0
 27 31  1  0  0  0  0
 27 64  1  0  0  0  0
 28 30  1  0  0  0  0
 28 65  1  0  0  0  0
 28 66  1  0  0  0  0
 29 31  2  0  0  0  0
 29 67  1  0  0  0  0
 30 33  1  0  0  0  0
 30 68  1  0  0  0  0
 30 69  1  0  0  0  0
 31 70  1  0  0  0  0
 33 38  1  0  0  0  0
 33 71  1  0  0  0  0
 33 72  1  0  0  0  0
 35 36  2  0  0  0  0
 35 73  1  0  0  0  0
 36 37  1  0  0  0  0
 36 74  1  0  0  0  0
 37 39  1  0  0  0  0
 37 75  1  0  0  0  0
 37 76  1  0  0  0  0
 38 77  1  0  0  0  0
 38 78  1  0  0  0  0
 38 79  1  0  0  0  0
 39 40  1  0  0  0  0
 39 80  1  0  0  0  0
 39 81  1  0  0  0  0
 40 41  1  0  0  0  0
 40 82  1  0  0  0  0
 40 83  1  0  0  0  0
M  END
> <ConfClashScore>
0 

> <ConfOneFourInteractionScore>
-0.983481 

> <ConfScore>
0.402308 

> <ConfScorePBest>
0.00222313 

> <ConfTolerance>
3.10206 

$$$$
9548876
  PyMOL2.2          3D                             0

 83 83  0  0  0  0  0  0  0  0999 V2000
   -5.0096   -1.0278   -0.1601 H   0  0  0  1  0  0  0  0  0  0  0  0
   -2.4406    3.4327   -0.8839 H   0  0  0  1  0  0  0  0  0  0  0  0
   -2.8912    3.6024    0.7956 H   0  0  0  1  0  0  0  0  0  0  0  0
   -3.1740    3.1813   -0.1465 C   0  0  0  1  0  0  0  0  0  0  0  0
   -4.1250    3.5730   -0.4417 H   0  0  0  1  0  0  0  0  0  0  0  0
   -7.0388    6.2595    5.1961 N   0  0  0  1  0  0  0  0  0  0  0  0
   -4.1286    5.7115    2.8560 C   0  0  0  1  0  0  0  0  0  0  0  0
   -2.8134    5.7250    3.6105 C   0  0  0  1  0  0  0  0  0  0  0  0
   -4.1817    5.9975    1.6712 O   0  0  0  1  0  0  0  0  0  0  0  0
   -7.8635    6.7277    6.3000 C   0  0  0  1  0  0  0  0  0  0  0  0
    2.2094    1.9770   -0.4196 O   0  0  0  1  0  0  0  0  0  0  0  0
   -8.7589    5.8269    3.8029 O   0  0  0  1  0  0  0  0  0  0  0  0
   -5.2089    5.3684    3.5739 N   0  0  0  1  0  0  0  0  0  0  0  0
   -4.1053    2.2975    4.5697 O   0  5  0  1  0  0  0  0  0  0  0  0
   -4.4468    1.0578   -0.2380 N   0  0  0  1  0  0  0  0  0  0  0  0
   -2.5597    2.2421    6.2581 O   0  0  0  1  0  0  0  0  0  0  0  0
   -6.0865    3.5580    1.2636 C   0  0  0  1  0  0  0  0  0  0  0  0
   -6.9095    3.9712    2.4729 C   0  0  0  1  0  0  0  0  0  0  0  0
   -2.3141    0.7408    0.3015 C   0  0  0  1  0  0  0  0  0  0  0  0
   -6.4303    2.1403    0.8368 C   0  0  0  1  0  0  0  0  0  0  0  0
   -2.9535   -0.5073    0.2771 C   0  0  0  1  0  0  0  0  0  0  0  0
    1.0776    3.9682    0.3355 C   0  0  0  1  0  0  0  0  0  0  0  0
   -6.5491    5.3611    3.0066 C   0  0  0  1  0  0  0  0  0  0  0  0
   -5.7396    1.7144   -0.4350 C   0  0  0  1  0  0  0  0  0  0  0  0
   -2.3109   -1.8431    0.5670 C   0  0  0  1  0  0  0  0  0  0  0  0
   -7.5645    5.8141    4.0514 C   0  0  0  1  0  0  0  0  0  0  0  0
    1.1237    2.4448    0.3704 C   0  0  0  1  0  0  0  0  0  0  0  0
    2.2824    4.6224    0.9900 C   0  0  0  1  0  0  0  0  0  0  0  0
   -0.9270    1.0807    0.5949 C   0  0  0  1  0  0  0  0  0  0  0  0
    2.3993    6.1086    0.6889 C   0  0  0  1  0  0  0  0  0  0  0  0
   -0.1640    1.8740   -0.1263 C   0  0  0  1  0  0  0  0  0  0  0  0
   -3.2650    1.6994   -0.0205 C   0  0  0  1  0  0  0  0  0  0  0  0
    1.0687    6.7752    0.4416 C   0  0  0  1  0  0  0  0  0  0  0  0
   -4.2765   -0.2970   -0.0597 C   0  0  0  1  0  0  0  0  0  0  0  0
   -0.9391   -1.7586    1.1571 C   0  0  0  1  0  0  0  0  0  0  0  0
   -0.6746   -1.4027    2.3892 C   0  0  0  1  0  0  0  0  0  0  0  0
   -1.6879   -1.3281    3.4999 C   0  0  0  1  0  0  0  0  0  0  0  0
    1.1275    8.2632    0.1523 C   0  0  0  1  0  0  0  0  0  0  0  0
   -1.9399    0.1155    3.9035 C   0  0  0  1  0  0  0  0  0  0  0  0
   -2.9718    0.2604    5.0101 C   0  0  0  1  0  0  0  0  0  0  0  0
   -3.1753    1.6949    5.3581 C   0  0  0  1  0  0  0  0  0  0  0  0
   -6.0640    6.2713    5.2959 H   0  0  0  1  0  0  0  0  0  0  0  0
   -2.0064    5.8510    2.9194 H   0  0  0  1  0  0  0  0  0  0  0  0
   -2.6933    4.7995    4.1339 H   0  0  0  1  0  0  0  0  0  0  0  0
   -2.8125    6.5340    4.3108 H   0  0  0  1  0  0  0  0  0  0  0  0
   -7.3233    7.4587    6.8644 H   0  0  0  1  0  0  0  0  0  0  0  0
   -8.1137    5.9021    6.9331 H   0  0  0  1  0  0  0  0  0  0  0  0
   -8.7599    7.1663    5.9142 H   0  0  0  1  0  0  0  0  0  0  0  0
    2.7235    2.7248   -0.7327 H   0  0  0  1  0  0  0  0  0  0  0  0
   -5.0915    5.1138    4.5129 H   0  0  0  1  0  0  0  0  0  0  0  0
   -5.0472    3.6070    1.5132 H   0  0  0  1  0  0  0  0  0  0  0  0
   -6.2914    4.2274    0.4544 H   0  0  0  1  0  0  0  0  0  0  0  0
   -6.7492    3.2563    3.2527 H   0  0  0  1  0  0  0  0  0  0  0  0
   -7.9430    3.9718    2.1957 H   0  0  0  1  0  0  0  0  0  0  0  0
   -7.4878    2.0785    0.6856 H   0  0  0  1  0  0  0  0  0  0  0  0
   -6.1418    1.4708    1.6201 H   0  0  0  1  0  0  0  0  0  0  0  0
    0.1957    4.2927    0.8472 H   0  0  0  1  0  0  0  0  0  0  0  0
    1.0339    4.2830   -0.6862 H   0  0  0  1  0  0  0  0  0  0  0  0
   -6.5848    6.0495    2.1882 H   0  0  0  1  0  0  0  0  0  0  0  0
   -6.3835    1.0341   -0.9521 H   0  0  0  1  0  0  0  0  0  0  0  0
   -5.5828    2.5852   -1.0367 H   0  0  0  1  0  0  0  0  0  0  0  0
   -2.2462   -2.3886   -0.3512 H   0  0  0  1  0  0  0  0  0  0  0  0
   -2.9375   -2.3728    1.2538 H   0  0  0  1  0  0  0  0  0  0  0  0
    1.2587    2.1363    1.3861 H   0  0  0  1  0  0  0  0  0  0  0  0
    3.1668    4.1342    0.6373 H   0  0  0  1  0  0  0  0  0  0  0  0
    2.2032    4.4961    2.0496 H   0  0  0  1  0  0  0  0  0  0  0  0
   -0.5044    0.6603    1.4471 H   0  0  0  1  0  0  0  0  0  0  0  0
    3.0074    6.2314   -0.1829 H   0  0  0  1  0  0  0  0  0  0  0  0
    2.8690    6.5877    1.5224 H   0  0  0  1  0  0  0  0  0  0  0  0
   -0.4728    2.1153   -1.0897 H   0  0  0  1  0  0  0  0  0  0  0  0
    0.4619    6.6323    1.3113 H   0  0  0  1  0  0  0  0  0  0  0  0
    0.6100    6.2943   -0.3969 H   0  0  0  1  0  0  0  0  0  0  0  0
   -0.1353   -2.0005    0.5430 H   0  0  0  1  0  0  0  0  0  0  0  0
    0.3088   -1.1530    2.6175 H   0  0  0  1  0  0  0  0  0  0  0  0
   -1.3211   -1.8701    4.3464 H   0  0  0  1  0  0  0  0  0  0  0  0
   -2.6063   -1.7647    3.1669 H   0  0  0  1  0  0  0  0  0  0  0  0
    1.1891    8.4194   -0.9044 H   0  0  0  1  0  0  0  0  0  0  0  0
    1.9896    8.6845    0.6257 H   0  0  0  1  0  0  0  0  0  0  0  0
    0.2453    8.7352    0.5316 H   0  0  0  1  0  0  0  0  0  0  0  0
   -2.2855    0.6524    3.0449 H   0  0  0  1  0  0  0  0  0  0  0  0
   -1.0175    0.5390    4.2422 H   0  0  0  1  0  0  0  0  0  0  0  0
   -2.6325   -0.2663    5.8774 H   0  0  0  1  0  0  0  0  0  0  0  0
   -3.9008   -0.1557    4.6802 H   0  0  0  1  0  0  0  0  0  0  0  0
  1 34  1  0  0  0  0
  2  4  1  0  0  0  0
  3  4  1  0  0  0  0
  4  5  1  0  0  0  0
  4 32  1  0  0  0  0
  6 10  1  0  0  0  0
  6 26  1  0  0  0  0
  6 42  1  0  0  0  0
  7  8  1  0  0  0  0
  7  9  2  0  0  0  0
  7 13  1  0  0  0  0
  8 43  1  0  0  0  0
  8 44  1  0  0  0  0
  8 45  1  0  0  0  0
 10 46  1  0  0  0  0
 10 47  1  0  0  0  0
 10 48  1  0  0  0  0
 11 27  1  0  0  0  0
 11 49  1  0  0  0  0
 12 26  2  0  0  0  0
 13 23  1  0  0  0  0
 13 50  1  0  0  0  0
 14 41  1  0  0  0  0
 15 24  1  0  0  0  0
 15 32  4  0  0  0  0
 15 34  4  0  0  0  0
 16 41  2  0  0  0  0
 17 18  1  0  0  0  0
 17 20  1  0  0  0  0
 17 51  1  0  0  0  0
 17 52  1  0  0  0  0
 18 23  1  0  0  0  0
 18 53  1  0  0  0  0
 18 54  1  0  0  0  0
 19 21  4  0  0  0  0
 19 29  1  0  0  0  0
 19 32  4  0  0  0  0
 20 24  1  0  0  0  0
 20 55  1  0  0  0  0
 20 56  1  0  0  0  0
 21 25  1  0  0  0  0
 21 34  4  0  0  0  0
 22 27  1  0  0  0  0
 22 28  1  0  0  0  0
 22 57  1  0  0  0  0
 22 58  1  0  0  0  0
 23 26  1  0  0  0  0
 23 59  1  0  0  0  0
 24 60  1  0  0  0  0
 24 61  1  0  0  0  0
 25 35  1  0  0  0  0
 25 62  1  0  0  0  0
 25 63  1  0  0  0  0
 27 31  1  0  0  0  0
 27 64  1  0  0  0  0
 28 30  1  0  0  0  0
 28 65  1  0  0  0  0
 28 66  1  0  0  0  0
 29 31  2  0  0  0  0
 29 67  1  0  0  0  0
 30 33  1  0  0  0  0
 30 68  1  0  0  0  0
 30 69  1  0  0  0  0
 31 70  1  0  0  0  0
 33 38  1  0  0  0  0
 33 71  1  0  0  0  0
 33 72  1  0  0  0  0
 35 36  2  0  0  0  0
 35 73  1  0  0  0  0
 36 37  1  0  0  0  0
 36 74  1  0  0  0  0
 37 39  1  0  0  0  0
 37 75  1  0  0  0  0
 37 76  1  0  0  0  0
 38 77  1  0  0  0  0
 38 78  1  0  0  0  0
 38 79  1  0  0  0  0
 39 40  1  0  0  0  0
 39 80  1  0  0  0  0
 39 81  1  0  0  0  0
 40 41  1  0  0  0  0
 40 82  1  0  0  0  0
 40 83  1  0  0  0  0
M  END
> <ConfClashScore>
0.000433201 

> <ConfOneFourInteractionScore>
-0.974503 

> <ConfScore>
0.429622 

> <ConfScorePBest>
0.00219465 

> <ConfTolerance>
3.51333 

$$$$
9548876
  PyMOL2.2          3D                             0

 83 83  0  0  0  0  0  0  0  0999 V2000
   -5.0128   -1.0333   -0.0784 H   0  0  0  1  0  0  0  0  0  0  0  0
   -4.0834    3.6256    0.2624 H   0  0  0  1  0  0  0  0  0  0  0  0
   -3.0979    3.4446   -1.1689 H   0  0  0  1  0  0  0  0  0  0  0  0
   -3.1944    3.1829   -0.1359 C   0  0  0  1  0  0  0  0  0  0  0  0
   -2.3440    3.5428    0.4047 H   0  0  0  1  0  0  0  0  0  0  0  0
   -3.0543    0.2522   -6.0285 N   0  0  0  1  0  0  0  0  0  0  0  0
   -4.3237    2.9893   -6.7150 C   0  0  0  1  0  0  0  0  0  0  0  0
   -4.8095    3.4772   -8.0753 C   0  0  0  1  0  0  0  0  0  0  0  0
   -3.3168    3.4622   -6.1894 O   0  0  0  1  0  0  0  0  0  0  0  0
   -1.8062   -0.4512   -6.2842 C   0  0  0  1  0  0  0  0  0  0  0  0
    2.3509   -0.3033    0.1695 O   0  0  0  1  0  0  0  0  0  0  0  0
   -2.8745    0.4239   -3.7869 O   0  0  0  1  0  0  0  0  0  0  0  0
   -5.0616    2.0242   -6.1439 N   0  0  0  1  0  0  0  0  0  0  0  0
    3.2711   -0.7131    6.0639 O   0  5  0  1  0  0  0  0  0  0  0  0
   -4.4613    1.0544   -0.1790 N   0  0  0  1  0  0  0  0  0  0  0  0
    1.7961   -2.4226    5.8865 O   0  0  0  1  0  0  0  0  0  0  0  0
   -5.9011    0.4717   -2.7882 C   0  0  0  1  0  0  0  0  0  0  0  0
   -5.9437    0.6873   -4.2959 C   0  0  0  1  0  0  0  0  0  0  0  0
   -2.3094    0.7464    0.2843 C   0  0  0  1  0  0  0  0  0  0  0  0
   -5.8091    1.8299   -2.1120 C   0  0  0  1  0  0  0  0  0  0  0  0
   -2.9444   -0.5042    0.2843 C   0  0  0  1  0  0  0  0  0  0  0  0
    1.8469    1.3589   -1.5172 C   0  0  0  1  0  0  0  0  0  0  0  0
   -4.7519    1.4846   -4.8284 C   0  0  0  1  0  0  0  0  0  0  0  0
   -5.6818    1.7428   -0.6006 C   0  0  0  1  0  0  0  0  0  0  0  0
   -2.2867   -1.8371    0.5528 C   0  0  0  1  0  0  0  0  0  0  0  0
   -3.4789    0.6435   -4.8237 C   0  0  0  1  0  0  0  0  0  0  0  0
    1.5093    0.8070   -0.1268 C   0  0  0  1  0  0  0  0  0  0  0  0
    1.1050    2.6384   -1.8526 C   0  0  0  1  0  0  0  0  0  0  0  0
   -0.9032    1.0409    0.5347 C   0  0  0  1  0  0  0  0  0  0  0  0
    1.4419    3.1870   -3.2286 C   0  0  0  1  0  0  0  0  0  0  0  0
    0.0710    0.4014   -0.0624 C   0  0  0  1  0  0  0  0  0  0  0  0
   -3.2751    1.7009   -0.0047 C   0  0  0  1  0  0  0  0  0  0  0  0
    0.5424    2.6516   -4.3260 C   0  0  0  1  0  0  0  0  0  0  0  0
   -4.2794   -0.2994   -0.0052 C   0  0  0  1  0  0  0  0  0  0  0  0
   -2.2263   -2.0802    2.0275 C   0  0  0  1  0  0  0  0  0  0  0  0
   -1.1649   -2.0195    2.7958 C   0  0  0  1  0  0  0  0  0  0  0  0
    0.1652   -1.4009    2.4580 C   0  0  0  1  0  0  0  0  0  0  0  0
   -0.8775    2.3138   -3.9016 C   0  0  0  1  0  0  0  0  0  0  0  0
    1.3388   -2.0977    3.1399 C   0  0  0  1  0  0  0  0  0  0  0  0
    2.2234   -1.1502    3.9337 C   0  0  0  1  0  0  0  0  0  0  0  0
    2.3998   -1.4955    5.3723 C   0  0  0  1  0  0  0  0  0  0  0  0
   -3.6265    0.4540   -6.7981 H   0  0  0  1  0  0  0  0  0  0  0  0
   -4.4759    2.8031   -8.8365 H   0  0  0  1  0  0  0  0  0  0  0  0
   -4.4147    4.4533   -8.2657 H   0  0  0  1  0  0  0  0  0  0  0  0
   -5.8787    3.5174   -8.0785 H   0  0  0  1  0  0  0  0  0  0  0  0
   -1.1092   -0.2381   -5.5008 H   0  0  0  1  0  0  0  0  0  0  0  0
   -1.4003   -0.1281   -7.2200 H   0  0  0  1  0  0  0  0  0  0  0  0
   -1.9915   -1.5044   -6.3197 H   0  0  0  1  0  0  0  0  0  0  0  0
    1.9021   -0.8911    0.7817 H   0  0  0  1  0  0  0  0  0  0  0  0
   -5.8357    1.6707   -6.6299 H   0  0  0  1  0  0  0  0  0  0  0  0
   -5.0462   -0.1183   -2.5316 H   0  0  0  1  0  0  0  0  0  0  0  0
   -6.7905   -0.0309   -2.4698 H   0  0  0  1  0  0  0  0  0  0  0  0
   -6.8414    1.2170   -4.5377 H   0  0  0  1  0  0  0  0  0  0  0  0
   -5.9533   -0.2693   -4.7753 H   0  0  0  1  0  0  0  0  0  0  0  0
   -6.6925    2.3862   -2.3465 H   0  0  0  1  0  0  0  0  0  0  0  0
   -4.9519    2.3425   -2.4957 H   0  0  0  1  0  0  0  0  0  0  0  0
    1.5932    0.6185   -2.2469 H   0  0  0  1  0  0  0  0  0  0  0  0
    2.8979    1.5554   -1.5583 H   0  0  0  1  0  0  0  0  0  0  0  0
   -4.5942    2.3048   -4.1596 H   0  0  0  1  0  0  0  0  0  0  0  0
   -5.6719    2.7348   -0.1997 H   0  0  0  1  0  0  0  0  0  0  0  0
   -6.5262    1.2103   -0.2155 H   0  0  0  1  0  0  0  0  0  0  0  0
   -1.2945   -1.8313    0.1523 H   0  0  0  1  0  0  0  0  0  0  0  0
   -2.8553   -2.6147    0.0871 H   0  0  0  1  0  0  0  0  0  0  0  0
    1.6729    1.5842    0.5902 H   0  0  0  1  0  0  0  0  0  0  0  0
    1.3567    3.3781   -1.1215 H   0  0  0  1  0  0  0  0  0  0  0  0
    0.0540    2.4413   -1.8139 H   0  0  0  1  0  0  0  0  0  0  0  0
   -0.6643    1.7898    1.2157 H   0  0  0  1  0  0  0  0  0  0  0  0
    2.4529    2.9243   -3.4603 H   0  0  0  1  0  0  0  0  0  0  0  0
    1.3469    4.2524   -3.2017 H   0  0  0  1  0  0  0  0  0  0  0  0
   -0.1828   -0.4846   -0.5443 H   0  0  0  1  0  0  0  0  0  0  0  0
    0.9909    1.7612   -4.7146 H   0  0  0  1  0  0  0  0  0  0  0  0
    0.4887    3.3906   -5.0979 H   0  0  0  1  0  0  0  0  0  0  0  0
   -3.1232   -2.3238    2.4943 H   0  0  0  1  0  0  0  0  0  0  0  0
   -1.2517   -2.4449    3.7408 H   0  0  0  1  0  0  0  0  0  0  0  0
    0.1521   -0.3761    2.7655 H   0  0  0  1  0  0  0  0  0  0  0  0
    0.3064   -1.4542    1.3986 H   0  0  0  1  0  0  0  0  0  0  0  0
   -0.8515    1.6197   -3.0877 H   0  0  0  1  0  0  0  0  0  0  0  0
   -1.4015    1.8770   -4.7260 H   0  0  0  1  0  0  0  0  0  0  0  0
   -1.3791    3.2070   -3.5924 H   0  0  0  1  0  0  0  0  0  0  0  0
    1.9362   -2.5700    2.3883 H   0  0  0  1  0  0  0  0  0  0  0  0
    0.9519   -2.8394    3.8070 H   0  0  0  1  0  0  0  0  0  0  0  0
    1.7921   -0.1725    3.8793 H   0  0  0  1  0  0  0  0  0  0  0  0
    3.1904   -1.1399    3.4758 H   0  0  0  1  0  0  0  0  0  0  0  0
  1 34  1  0  0  0  0
  2  4  1  0  0  0  0
  3  4  1  0  0  0  0
  4  5  1  0  0  0  0
  4 32  1  0  0  0  0
  6 10  1  0  0  0  0
  6 26  1  0  0  0  0
  6 42  1  0  0  0  0
  7  8  1  0  0  0  0
  7  9  2  0  0  0  0
  7 13  1  0  0  0  0
  8 43  1  0  0  0  0
  8 44  1  0  0  0  0
  8 45  1  0  0  0  0
 10 46  1  0  0  0  0
 10 47  1  0  0  0  0
 10 48  1  0  0  0  0
 11 27  1  0  0  0  0
 11 49  1  0  0  0  0
 12 26  2  0  0  0  0
 13 23  1  0  0  0  0
 13 50  1  0  0  0  0
 14 41  1  0  0  0  0
 15 24  1  0  0  0  0
 15 32  4  0  0  0  0
 15 34  4  0  0  0  0
 16 41  2  0  0  0  0
 17 18  1  0  0  0  0
 17 20  1  0  0  0  0
 17 51  1  0  0  0  0
 17 52  1  0  0  0  0
 18 23  1  0  0  0  0
 18 53  1  0  0  0  0
 18 54  1  0  0  0  0
 19 21  4  0  0  0  0
 19 29  1  0  0  0  0
 19 32  4  0  0  0  0
 20 24  1  0  0  0  0
 20 55  1  0  0  0  0
 20 56  1  0  0  0  0
 21 25  1  0  0  0  0
 21 34  4  0  0  0  0
 22 27  1  0  0  0  0
 22 28  1  0  0  0  0
 22 57  1  0  0  0  0
 22 58  1  0  0  0  0
 23 26  1  0  0  0  0
 23 59  1  0  0  0  0
 24 60  1  0  0  0  0
 24 61  1  0  0  0  0
 25 35  1  0  0  0  0
 25 62  1  0  0  0  0
 25 63  1  0  0  0  0
 27 31  1  0  0  0  0
 27 64  1  0  0  0  0
 28 30  1  0  0  0  0
 28 65  1  0  0  0  0
 28 66  1  0  0  0  0
 29 31  2  0  0  0  0
 29 67  1  0  0  0  0
 30 33  1  0  0  0  0
 30 68  1  0  0  0  0
 30 69  1  0  0  0  0
 31 70  1  0  0  0  0
 33 38  1  0  0  0  0
 33 71  1  0  0  0  0
 33 72  1  0  0  0  0
 35 36  2  0  0  0  0
 35 73  1  0  0  0  0
 36 37  1  0  0  0  0
 36 74  1  0  0  0  0
 37 39  1  0  0  0  0
 37 75  1  0  0  0  0
 37 76  1  0  0  0  0
 38 77  1  0  0  0  0
 38 78  1  0  0  0  0
 38 79  1  0  0  0  0
 39 40  1  0  0  0  0
 39 80  1  0  0  0  0
 39 81  1  0  0  0  0
 40 41  1  0  0  0  0
 40 82  1  0  0  0  0
 40 83  1  0  0  0  0
M  END
> <ConfClashScore>
0 

> <ConfOneFourInteractionScore>
-0.974553 

> <ConfScore>
0.462461 

> <ConfScorePBest>
0.00216617 

> <ConfTolerance>
5.23424 

$$$$
